<?xml version="1.0" encoding="UTF-8"?>

<!-- generated on Thu Aug  5 11:09:01 2021 by Eclipse SUMO duarouter Version 1.2.0
<configuration xmlns:xsi="http://www.w3.org/2001/XMLSchema-instance" xsi:noNamespaceSchemaLocation="http://sumo.dlr.de/xsd/duarouterConfiguration.xsd">

    <input>
        <net-file value="./3lane/map.net.xml"/>
        <route-files value="./3lane/map_p_2.trip.xml"/>
    </input>

    <output>
        <output-file value="./3lane/map_p_2.rou.xml"/>
        <alternatives-output value="./3lane/map_p_2.rou.alt.xml"/>
    </output>

    <time>
        <begin value="0"/>
        <end value="3600"/>
    </time>

    <report>
        <no-warnings value="true"/>
        <ignore-errors value="true"/>
        <no-step-log value="true"/>
    </report>

</configuration>
-->

<routes xmlns:xsi="http://www.w3.org/2001/XMLSchema-instance" xsi:noNamespaceSchemaLocation="http://sumo.dlr.de/xsd/routes_file.xsd">
    <vehicle id="0" depart="0.00" departLane="best" departPos="random_free" departSpeed="0.00">
        <route edges="0.0.00 -0.0.00"/>
    </vehicle>
    <vehicle id="1" depart="0.50" departLane="best" departPos="random_free" departSpeed="0.00">
        <route edges="0.0.00"/>
    </vehicle>
    <vehicle id="2" depart="1.00" departLane="best" departPos="random_free" departSpeed="0.00">
        <route edges="-0.0.00 0.0.00"/>
    </vehicle>
    <vehicle id="3" depart="1.50" departLane="best" departPos="random_free" departSpeed="0.00">
        <route edges="0.0.00"/>
    </vehicle>
    <vehicle id="4" depart="2.00" departLane="best" departPos="random_free" departSpeed="0.00">
        <route edges="-0.0.00"/>
    </vehicle>
    <vehicle id="5" depart="2.50" departLane="best" departPos="random_free" departSpeed="0.00">
        <route edges="-0.0.00"/>
    </vehicle>
    <vehicle id="6" depart="3.00" departLane="best" departPos="random_free" departSpeed="0.00">
        <route edges="-0.0.00"/>
    </vehicle>
    <vehicle id="7" depart="3.50" departLane="best" departPos="random_free" departSpeed="0.00">
        <route edges="-0.0.00 0.0.00"/>
    </vehicle>
    <vehicle id="8" depart="4.00" departLane="best" departPos="random_free" departSpeed="0.00">
        <route edges="0.0.00 -0.0.00"/>
    </vehicle>
    <vehicle id="9" depart="4.50" departLane="best" departPos="random_free" departSpeed="0.00">
        <route edges="0.0.00 -0.0.00"/>
    </vehicle>
    <vehicle id="10" depart="5.00" departLane="best" departPos="random_free" departSpeed="0.00">
        <route edges="-0.0.00"/>
    </vehicle>
    <vehicle id="11" depart="5.50" departLane="best" departPos="random_free" departSpeed="0.00">
        <route edges="-0.0.00"/>
    </vehicle>
    <vehicle id="12" depart="6.00" departLane="best" departPos="random_free" departSpeed="0.00">
        <route edges="-0.0.00"/>
    </vehicle>
    <vehicle id="13" depart="6.50" departLane="best" departPos="random_free" departSpeed="0.00">
        <route edges="0.0.00"/>
    </vehicle>
    <vehicle id="14" depart="7.00" departLane="best" departPos="random_free" departSpeed="0.00">
        <route edges="0.0.00"/>
    </vehicle>
    <vehicle id="15" depart="7.50" departLane="best" departPos="random_free" departSpeed="0.00">
        <route edges="-0.0.00"/>
    </vehicle>
    <vehicle id="16" depart="8.00" departLane="best" departPos="random_free" departSpeed="0.00">
        <route edges="0.0.00"/>
    </vehicle>
    <vehicle id="17" depart="8.50" departLane="best" departPos="random_free" departSpeed="0.00">
        <route edges="0.0.00"/>
    </vehicle>
    <vehicle id="18" depart="9.00" departLane="best" departPos="random_free" departSpeed="0.00">
        <route edges="0.0.00 -0.0.00"/>
    </vehicle>
    <vehicle id="19" depart="9.50" departLane="best" departPos="random_free" departSpeed="0.00">
        <route edges="-0.0.00 0.0.00"/>
    </vehicle>
    <vehicle id="20" depart="10.00" departLane="best" departPos="random_free" departSpeed="0.00">
        <route edges="0.0.00"/>
    </vehicle>
    <vehicle id="21" depart="10.50" departLane="best" departPos="random_free" departSpeed="0.00">
        <route edges="0.0.00"/>
    </vehicle>
    <vehicle id="22" depart="11.00" departLane="best" departPos="random_free" departSpeed="0.00">
        <route edges="0.0.00"/>
    </vehicle>
    <vehicle id="23" depart="11.50" departLane="best" departPos="random_free" departSpeed="0.00">
        <route edges="-0.0.00"/>
    </vehicle>
    <vehicle id="24" depart="12.00" departLane="best" departPos="random_free" departSpeed="0.00">
        <route edges="0.0.00 -0.0.00"/>
    </vehicle>
    <vehicle id="25" depart="12.50" departLane="best" departPos="random_free" departSpeed="0.00">
        <route edges="-0.0.00"/>
    </vehicle>
    <vehicle id="26" depart="13.00" departLane="best" departPos="random_free" departSpeed="0.00">
        <route edges="-0.0.00"/>
    </vehicle>
    <vehicle id="27" depart="13.50" departLane="best" departPos="random_free" departSpeed="0.00">
        <route edges="0.0.00 -0.0.00"/>
    </vehicle>
    <vehicle id="28" depart="14.00" departLane="best" departPos="random_free" departSpeed="0.00">
        <route edges="0.0.00"/>
    </vehicle>
    <vehicle id="29" depart="14.50" departLane="best" departPos="random_free" departSpeed="0.00">
        <route edges="0.0.00"/>
    </vehicle>
    <vehicle id="30" depart="15.00" departLane="best" departPos="random_free" departSpeed="0.00">
        <route edges="-0.0.00"/>
    </vehicle>
    <vehicle id="31" depart="15.50" departLane="best" departPos="random_free" departSpeed="0.00">
        <route edges="0.0.00 -0.0.00"/>
    </vehicle>
    <vehicle id="32" depart="16.00" departLane="best" departPos="random_free" departSpeed="0.00">
        <route edges="0.0.00 -0.0.00"/>
    </vehicle>
    <vehicle id="33" depart="16.50" departLane="best" departPos="random_free" departSpeed="0.00">
        <route edges="-0.0.00"/>
    </vehicle>
    <vehicle id="34" depart="17.00" departLane="best" departPos="random_free" departSpeed="0.00">
        <route edges="-0.0.00"/>
    </vehicle>
    <vehicle id="35" depart="17.50" departLane="best" departPos="random_free" departSpeed="0.00">
        <route edges="0.0.00"/>
    </vehicle>
    <vehicle id="36" depart="18.00" departLane="best" departPos="random_free" departSpeed="0.00">
        <route edges="0.0.00"/>
    </vehicle>
    <vehicle id="37" depart="18.50" departLane="best" departPos="random_free" departSpeed="0.00">
        <route edges="0.0.00"/>
    </vehicle>
    <vehicle id="38" depart="19.00" departLane="best" departPos="random_free" departSpeed="0.00">
        <route edges="-0.0.00"/>
    </vehicle>
    <vehicle id="39" depart="19.50" departLane="best" departPos="random_free" departSpeed="0.00">
        <route edges="0.0.00 -0.0.00"/>
    </vehicle>
    <vehicle id="40" depart="20.00" departLane="best" departPos="random_free" departSpeed="0.00">
        <route edges="-0.0.00 0.0.00"/>
    </vehicle>
    <vehicle id="41" depart="20.50" departLane="best" departPos="random_free" departSpeed="0.00">
        <route edges="-0.0.00"/>
    </vehicle>
    <vehicle id="42" depart="21.00" departLane="best" departPos="random_free" departSpeed="0.00">
        <route edges="-0.0.00"/>
    </vehicle>
    <vehicle id="43" depart="21.50" departLane="best" departPos="random_free" departSpeed="0.00">
        <route edges="-0.0.00 0.0.00"/>
    </vehicle>
    <vehicle id="44" depart="22.00" departLane="best" departPos="random_free" departSpeed="0.00">
        <route edges="0.0.00"/>
    </vehicle>
    <vehicle id="45" depart="22.50" departLane="best" departPos="random_free" departSpeed="0.00">
        <route edges="-0.0.00 0.0.00"/>
    </vehicle>
    <vehicle id="46" depart="23.00" departLane="best" departPos="random_free" departSpeed="0.00">
        <route edges="0.0.00"/>
    </vehicle>
    <vehicle id="47" depart="23.50" departLane="best" departPos="random_free" departSpeed="0.00">
        <route edges="-0.0.00"/>
    </vehicle>
    <vehicle id="48" depart="24.00" departLane="best" departPos="random_free" departSpeed="0.00">
        <route edges="0.0.00 -0.0.00"/>
    </vehicle>
    <vehicle id="49" depart="24.50" departLane="best" departPos="random_free" departSpeed="0.00">
        <route edges="-0.0.00 0.0.00"/>
    </vehicle>
    <vehicle id="50" depart="25.00" departLane="best" departPos="random_free" departSpeed="0.00">
        <route edges="0.0.00"/>
    </vehicle>
    <vehicle id="51" depart="25.50" departLane="best" departPos="random_free" departSpeed="0.00">
        <route edges="0.0.00"/>
    </vehicle>
    <vehicle id="52" depart="26.00" departLane="best" departPos="random_free" departSpeed="0.00">
        <route edges="0.0.00"/>
    </vehicle>
    <vehicle id="53" depart="26.50" departLane="best" departPos="random_free" departSpeed="0.00">
        <route edges="0.0.00 -0.0.00"/>
    </vehicle>
    <vehicle id="54" depart="27.00" departLane="best" departPos="random_free" departSpeed="0.00">
        <route edges="-0.0.00 0.0.00"/>
    </vehicle>
    <vehicle id="55" depart="27.50" departLane="best" departPos="random_free" departSpeed="0.00">
        <route edges="0.0.00"/>
    </vehicle>
    <vehicle id="56" depart="28.00" departLane="best" departPos="random_free" departSpeed="0.00">
        <route edges="-0.0.00"/>
    </vehicle>
    <vehicle id="57" depart="28.50" departLane="best" departPos="random_free" departSpeed="0.00">
        <route edges="0.0.00"/>
    </vehicle>
    <vehicle id="58" depart="29.00" departLane="best" departPos="random_free" departSpeed="0.00">
        <route edges="-0.0.00 0.0.00"/>
    </vehicle>
    <vehicle id="59" depart="29.50" departLane="best" departPos="random_free" departSpeed="0.00">
        <route edges="0.0.00 -0.0.00"/>
    </vehicle>
    <vehicle id="60" depart="30.00" departLane="best" departPos="random_free" departSpeed="0.00">
        <route edges="-0.0.00"/>
    </vehicle>
    <vehicle id="61" depart="30.50" departLane="best" departPos="random_free" departSpeed="0.00">
        <route edges="0.0.00"/>
    </vehicle>
    <vehicle id="62" depart="31.00" departLane="best" departPos="random_free" departSpeed="0.00">
        <route edges="-0.0.00"/>
    </vehicle>
    <vehicle id="63" depart="31.50" departLane="best" departPos="random_free" departSpeed="0.00">
        <route edges="0.0.00"/>
    </vehicle>
    <vehicle id="64" depart="32.00" departLane="best" departPos="random_free" departSpeed="0.00">
        <route edges="0.0.00 -0.0.00"/>
    </vehicle>
    <vehicle id="65" depart="32.50" departLane="best" departPos="random_free" departSpeed="0.00">
        <route edges="-0.0.00 0.0.00"/>
    </vehicle>
    <vehicle id="66" depart="33.00" departLane="best" departPos="random_free" departSpeed="0.00">
        <route edges="0.0.00"/>
    </vehicle>
    <vehicle id="67" depart="33.50" departLane="best" departPos="random_free" departSpeed="0.00">
        <route edges="-0.0.00 0.0.00"/>
    </vehicle>
    <vehicle id="68" depart="34.00" departLane="best" departPos="random_free" departSpeed="0.00">
        <route edges="0.0.00"/>
    </vehicle>
    <vehicle id="69" depart="34.50" departLane="best" departPos="random_free" departSpeed="0.00">
        <route edges="0.0.00"/>
    </vehicle>
    <vehicle id="70" depart="35.00" departLane="best" departPos="random_free" departSpeed="0.00">
        <route edges="-0.0.00 0.0.00"/>
    </vehicle>
    <vehicle id="71" depart="35.50" departLane="best" departPos="random_free" departSpeed="0.00">
        <route edges="-0.0.00"/>
    </vehicle>
    <vehicle id="72" depart="36.00" departLane="best" departPos="random_free" departSpeed="0.00">
        <route edges="-0.0.00 0.0.00"/>
    </vehicle>
    <vehicle id="73" depart="36.50" departLane="best" departPos="random_free" departSpeed="0.00">
        <route edges="-0.0.00"/>
    </vehicle>
    <vehicle id="74" depart="37.00" departLane="best" departPos="random_free" departSpeed="0.00">
        <route edges="-0.0.00 0.0.00"/>
    </vehicle>
    <vehicle id="75" depart="37.50" departLane="best" departPos="random_free" departSpeed="0.00">
        <route edges="-0.0.00"/>
    </vehicle>
    <vehicle id="76" depart="38.00" departLane="best" departPos="random_free" departSpeed="0.00">
        <route edges="0.0.00"/>
    </vehicle>
    <vehicle id="77" depart="38.50" departLane="best" departPos="random_free" departSpeed="0.00">
        <route edges="-0.0.00"/>
    </vehicle>
    <vehicle id="78" depart="39.00" departLane="best" departPos="random_free" departSpeed="0.00">
        <route edges="-0.0.00"/>
    </vehicle>
    <vehicle id="79" depart="39.50" departLane="best" departPos="random_free" departSpeed="0.00">
        <route edges="0.0.00 -0.0.00"/>
    </vehicle>
    <vehicle id="80" depart="40.00" departLane="best" departPos="random_free" departSpeed="0.00">
        <route edges="0.0.00 -0.0.00"/>
    </vehicle>
    <vehicle id="81" depart="40.50" departLane="best" departPos="random_free" departSpeed="0.00">
        <route edges="0.0.00"/>
    </vehicle>
    <vehicle id="82" depart="41.00" departLane="best" departPos="random_free" departSpeed="0.00">
        <route edges="-0.0.00 0.0.00"/>
    </vehicle>
    <vehicle id="83" depart="41.50" departLane="best" departPos="random_free" departSpeed="0.00">
        <route edges="0.0.00"/>
    </vehicle>
    <vehicle id="84" depart="42.00" departLane="best" departPos="random_free" departSpeed="0.00">
        <route edges="0.0.00"/>
    </vehicle>
    <vehicle id="85" depart="42.50" departLane="best" departPos="random_free" departSpeed="0.00">
        <route edges="-0.0.00"/>
    </vehicle>
    <vehicle id="86" depart="43.00" departLane="best" departPos="random_free" departSpeed="0.00">
        <route edges="-0.0.00"/>
    </vehicle>
    <vehicle id="87" depart="43.50" departLane="best" departPos="random_free" departSpeed="0.00">
        <route edges="-0.0.00 0.0.00"/>
    </vehicle>
    <vehicle id="88" depart="44.00" departLane="best" departPos="random_free" departSpeed="0.00">
        <route edges="0.0.00"/>
    </vehicle>
    <vehicle id="89" depart="44.50" departLane="best" departPos="random_free" departSpeed="0.00">
        <route edges="0.0.00"/>
    </vehicle>
    <vehicle id="90" depart="45.00" departLane="best" departPos="random_free" departSpeed="0.00">
        <route edges="0.0.00 -0.0.00"/>
    </vehicle>
    <vehicle id="91" depart="45.50" departLane="best" departPos="random_free" departSpeed="0.00">
        <route edges="-0.0.00 0.0.00"/>
    </vehicle>
    <vehicle id="92" depart="46.00" departLane="best" departPos="random_free" departSpeed="0.00">
        <route edges="0.0.00"/>
    </vehicle>
    <vehicle id="93" depart="46.50" departLane="best" departPos="random_free" departSpeed="0.00">
        <route edges="0.0.00 -0.0.00"/>
    </vehicle>
    <vehicle id="94" depart="47.00" departLane="best" departPos="random_free" departSpeed="0.00">
        <route edges="-0.0.00 0.0.00"/>
    </vehicle>
    <vehicle id="95" depart="47.50" departLane="best" departPos="random_free" departSpeed="0.00">
        <route edges="-0.0.00"/>
    </vehicle>
    <vehicle id="96" depart="48.00" departLane="best" departPos="random_free" departSpeed="0.00">
        <route edges="-0.0.00"/>
    </vehicle>
    <vehicle id="97" depart="48.50" departLane="best" departPos="random_free" departSpeed="0.00">
        <route edges="0.0.00"/>
    </vehicle>
    <vehicle id="98" depart="49.00" departLane="best" departPos="random_free" departSpeed="0.00">
        <route edges="0.0.00"/>
    </vehicle>
    <vehicle id="99" depart="49.50" departLane="best" departPos="random_free" departSpeed="0.00">
        <route edges="-0.0.00"/>
    </vehicle>
    <vehicle id="100" depart="50.00" departLane="best" departPos="random_free" departSpeed="0.00">
        <route edges="-0.0.00 0.0.00"/>
    </vehicle>
    <vehicle id="101" depart="50.50" departLane="best" departPos="random_free" departSpeed="0.00">
        <route edges="-0.0.00 0.0.00"/>
    </vehicle>
    <vehicle id="102" depart="51.00" departLane="best" departPos="random_free" departSpeed="0.00">
        <route edges="0.0.00"/>
    </vehicle>
    <vehicle id="103" depart="51.50" departLane="best" departPos="random_free" departSpeed="0.00">
        <route edges="-0.0.00"/>
    </vehicle>
    <vehicle id="104" depart="52.00" departLane="best" departPos="random_free" departSpeed="0.00">
        <route edges="0.0.00"/>
    </vehicle>
    <vehicle id="105" depart="52.50" departLane="best" departPos="random_free" departSpeed="0.00">
        <route edges="-0.0.00 0.0.00"/>
    </vehicle>
    <vehicle id="106" depart="53.00" departLane="best" departPos="random_free" departSpeed="0.00">
        <route edges="0.0.00"/>
    </vehicle>
    <vehicle id="107" depart="53.50" departLane="best" departPos="random_free" departSpeed="0.00">
        <route edges="0.0.00"/>
    </vehicle>
    <vehicle id="108" depart="54.00" departLane="best" departPos="random_free" departSpeed="0.00">
        <route edges="0.0.00"/>
    </vehicle>
    <vehicle id="109" depart="54.50" departLane="best" departPos="random_free" departSpeed="0.00">
        <route edges="-0.0.00"/>
    </vehicle>
    <vehicle id="110" depart="55.00" departLane="best" departPos="random_free" departSpeed="0.00">
        <route edges="-0.0.00 0.0.00"/>
    </vehicle>
    <vehicle id="111" depart="55.50" departLane="best" departPos="random_free" departSpeed="0.00">
        <route edges="0.0.00 -0.0.00"/>
    </vehicle>
    <vehicle id="112" depart="56.00" departLane="best" departPos="random_free" departSpeed="0.00">
        <route edges="-0.0.00 0.0.00"/>
    </vehicle>
    <vehicle id="113" depart="56.50" departLane="best" departPos="random_free" departSpeed="0.00">
        <route edges="-0.0.00 0.0.00"/>
    </vehicle>
    <vehicle id="114" depart="57.00" departLane="best" departPos="random_free" departSpeed="0.00">
        <route edges="0.0.00"/>
    </vehicle>
    <vehicle id="115" depart="57.50" departLane="best" departPos="random_free" departSpeed="0.00">
        <route edges="-0.0.00 0.0.00"/>
    </vehicle>
    <vehicle id="116" depart="58.00" departLane="best" departPos="random_free" departSpeed="0.00">
        <route edges="0.0.00"/>
    </vehicle>
    <vehicle id="117" depart="58.50" departLane="best" departPos="random_free" departSpeed="0.00">
        <route edges="0.0.00 -0.0.00"/>
    </vehicle>
    <vehicle id="118" depart="59.00" departLane="best" departPos="random_free" departSpeed="0.00">
        <route edges="-0.0.00"/>
    </vehicle>
    <vehicle id="119" depart="59.50" departLane="best" departPos="random_free" departSpeed="0.00">
        <route edges="0.0.00 -0.0.00"/>
    </vehicle>
    <vehicle id="120" depart="60.00" departLane="best" departPos="random_free" departSpeed="0.00">
        <route edges="-0.0.00 0.0.00"/>
    </vehicle>
    <vehicle id="121" depart="60.50" departLane="best" departPos="random_free" departSpeed="0.00">
        <route edges="0.0.00"/>
    </vehicle>
    <vehicle id="122" depart="61.00" departLane="best" departPos="random_free" departSpeed="0.00">
        <route edges="-0.0.00 0.0.00"/>
    </vehicle>
    <vehicle id="123" depart="61.50" departLane="best" departPos="random_free" departSpeed="0.00">
        <route edges="-0.0.00"/>
    </vehicle>
    <vehicle id="124" depart="62.00" departLane="best" departPos="random_free" departSpeed="0.00">
        <route edges="0.0.00 -0.0.00"/>
    </vehicle>
    <vehicle id="125" depart="62.50" departLane="best" departPos="random_free" departSpeed="0.00">
        <route edges="0.0.00"/>
    </vehicle>
    <vehicle id="126" depart="63.00" departLane="best" departPos="random_free" departSpeed="0.00">
        <route edges="0.0.00"/>
    </vehicle>
    <vehicle id="127" depart="63.50" departLane="best" departPos="random_free" departSpeed="0.00">
        <route edges="-0.0.00 0.0.00"/>
    </vehicle>
    <vehicle id="128" depart="64.00" departLane="best" departPos="random_free" departSpeed="0.00">
        <route edges="0.0.00 -0.0.00"/>
    </vehicle>
    <vehicle id="129" depart="64.50" departLane="best" departPos="random_free" departSpeed="0.00">
        <route edges="-0.0.00 0.0.00"/>
    </vehicle>
    <vehicle id="130" depart="65.00" departLane="best" departPos="random_free" departSpeed="0.00">
        <route edges="0.0.00"/>
    </vehicle>
    <vehicle id="131" depart="65.50" departLane="best" departPos="random_free" departSpeed="0.00">
        <route edges="0.0.00 -0.0.00"/>
    </vehicle>
    <vehicle id="132" depart="66.00" departLane="best" departPos="random_free" departSpeed="0.00">
        <route edges="-0.0.00"/>
    </vehicle>
    <vehicle id="133" depart="66.50" departLane="best" departPos="random_free" departSpeed="0.00">
        <route edges="-0.0.00 0.0.00"/>
    </vehicle>
    <vehicle id="134" depart="67.00" departLane="best" departPos="random_free" departSpeed="0.00">
        <route edges="-0.0.00 0.0.00"/>
    </vehicle>
    <vehicle id="135" depart="67.50" departLane="best" departPos="random_free" departSpeed="0.00">
        <route edges="0.0.00"/>
    </vehicle>
    <vehicle id="136" depart="68.00" departLane="best" departPos="random_free" departSpeed="0.00">
        <route edges="0.0.00 -0.0.00"/>
    </vehicle>
    <vehicle id="137" depart="68.50" departLane="best" departPos="random_free" departSpeed="0.00">
        <route edges="-0.0.00 0.0.00"/>
    </vehicle>
    <vehicle id="138" depart="69.00" departLane="best" departPos="random_free" departSpeed="0.00">
        <route edges="0.0.00"/>
    </vehicle>
    <vehicle id="139" depart="69.50" departLane="best" departPos="random_free" departSpeed="0.00">
        <route edges="0.0.00 -0.0.00"/>
    </vehicle>
    <vehicle id="140" depart="70.00" departLane="best" departPos="random_free" departSpeed="0.00">
        <route edges="0.0.00 -0.0.00"/>
    </vehicle>
    <vehicle id="141" depart="70.50" departLane="best" departPos="random_free" departSpeed="0.00">
        <route edges="-0.0.00 0.0.00"/>
    </vehicle>
    <vehicle id="142" depart="71.00" departLane="best" departPos="random_free" departSpeed="0.00">
        <route edges="0.0.00"/>
    </vehicle>
    <vehicle id="143" depart="71.50" departLane="best" departPos="random_free" departSpeed="0.00">
        <route edges="0.0.00"/>
    </vehicle>
    <vehicle id="144" depart="72.00" departLane="best" departPos="random_free" departSpeed="0.00">
        <route edges="-0.0.00 0.0.00"/>
    </vehicle>
    <vehicle id="145" depart="72.50" departLane="best" departPos="random_free" departSpeed="0.00">
        <route edges="-0.0.00 0.0.00"/>
    </vehicle>
    <vehicle id="146" depart="73.00" departLane="best" departPos="random_free" departSpeed="0.00">
        <route edges="0.0.00"/>
    </vehicle>
    <vehicle id="147" depart="73.50" departLane="best" departPos="random_free" departSpeed="0.00">
        <route edges="0.0.00 -0.0.00"/>
    </vehicle>
    <vehicle id="148" depart="74.00" departLane="best" departPos="random_free" departSpeed="0.00">
        <route edges="0.0.00"/>
    </vehicle>
    <vehicle id="149" depart="74.50" departLane="best" departPos="random_free" departSpeed="0.00">
        <route edges="0.0.00"/>
    </vehicle>
    <vehicle id="150" depart="75.00" departLane="best" departPos="random_free" departSpeed="0.00">
        <route edges="0.0.00 -0.0.00"/>
    </vehicle>
    <vehicle id="151" depart="75.50" departLane="best" departPos="random_free" departSpeed="0.00">
        <route edges="0.0.00"/>
    </vehicle>
    <vehicle id="152" depart="76.00" departLane="best" departPos="random_free" departSpeed="0.00">
        <route edges="0.0.00 -0.0.00"/>
    </vehicle>
    <vehicle id="153" depart="76.50" departLane="best" departPos="random_free" departSpeed="0.00">
        <route edges="-0.0.00 0.0.00"/>
    </vehicle>
    <vehicle id="154" depart="77.00" departLane="best" departPos="random_free" departSpeed="0.00">
        <route edges="-0.0.00 0.0.00"/>
    </vehicle>
    <vehicle id="155" depart="77.50" departLane="best" departPos="random_free" departSpeed="0.00">
        <route edges="-0.0.00 0.0.00"/>
    </vehicle>
    <vehicle id="156" depart="78.00" departLane="best" departPos="random_free" departSpeed="0.00">
        <route edges="-0.0.00 0.0.00"/>
    </vehicle>
    <vehicle id="157" depart="78.50" departLane="best" departPos="random_free" departSpeed="0.00">
        <route edges="0.0.00"/>
    </vehicle>
    <vehicle id="158" depart="79.00" departLane="best" departPos="random_free" departSpeed="0.00">
        <route edges="-0.0.00"/>
    </vehicle>
    <vehicle id="159" depart="79.50" departLane="best" departPos="random_free" departSpeed="0.00">
        <route edges="-0.0.00"/>
    </vehicle>
    <vehicle id="160" depart="80.00" departLane="best" departPos="random_free" departSpeed="0.00">
        <route edges="0.0.00 -0.0.00"/>
    </vehicle>
    <vehicle id="161" depart="80.50" departLane="best" departPos="random_free" departSpeed="0.00">
        <route edges="-0.0.00"/>
    </vehicle>
    <vehicle id="162" depart="81.00" departLane="best" departPos="random_free" departSpeed="0.00">
        <route edges="0.0.00"/>
    </vehicle>
    <vehicle id="163" depart="81.50" departLane="best" departPos="random_free" departSpeed="0.00">
        <route edges="-0.0.00"/>
    </vehicle>
    <vehicle id="164" depart="82.00" departLane="best" departPos="random_free" departSpeed="0.00">
        <route edges="0.0.00 -0.0.00"/>
    </vehicle>
    <vehicle id="165" depart="82.50" departLane="best" departPos="random_free" departSpeed="0.00">
        <route edges="-0.0.00 0.0.00"/>
    </vehicle>
    <vehicle id="166" depart="83.00" departLane="best" departPos="random_free" departSpeed="0.00">
        <route edges="-0.0.00 0.0.00"/>
    </vehicle>
    <vehicle id="167" depart="83.50" departLane="best" departPos="random_free" departSpeed="0.00">
        <route edges="0.0.00 -0.0.00"/>
    </vehicle>
    <vehicle id="168" depart="84.00" departLane="best" departPos="random_free" departSpeed="0.00">
        <route edges="0.0.00"/>
    </vehicle>
    <vehicle id="169" depart="84.50" departLane="best" departPos="random_free" departSpeed="0.00">
        <route edges="-0.0.00"/>
    </vehicle>
    <vehicle id="170" depart="85.00" departLane="best" departPos="random_free" departSpeed="0.00">
        <route edges="-0.0.00 0.0.00"/>
    </vehicle>
    <vehicle id="171" depart="85.50" departLane="best" departPos="random_free" departSpeed="0.00">
        <route edges="-0.0.00"/>
    </vehicle>
    <vehicle id="172" depart="86.00" departLane="best" departPos="random_free" departSpeed="0.00">
        <route edges="0.0.00"/>
    </vehicle>
    <vehicle id="173" depart="86.50" departLane="best" departPos="random_free" departSpeed="0.00">
        <route edges="0.0.00 -0.0.00"/>
    </vehicle>
    <vehicle id="174" depart="87.00" departLane="best" departPos="random_free" departSpeed="0.00">
        <route edges="0.0.00 -0.0.00"/>
    </vehicle>
    <vehicle id="175" depart="87.50" departLane="best" departPos="random_free" departSpeed="0.00">
        <route edges="0.0.00 -0.0.00"/>
    </vehicle>
    <vehicle id="176" depart="88.00" departLane="best" departPos="random_free" departSpeed="0.00">
        <route edges="0.0.00 -0.0.00"/>
    </vehicle>
    <vehicle id="177" depart="88.50" departLane="best" departPos="random_free" departSpeed="0.00">
        <route edges="-0.0.00"/>
    </vehicle>
    <vehicle id="178" depart="89.00" departLane="best" departPos="random_free" departSpeed="0.00">
        <route edges="-0.0.00 0.0.00"/>
    </vehicle>
    <vehicle id="179" depart="89.50" departLane="best" departPos="random_free" departSpeed="0.00">
        <route edges="-0.0.00"/>
    </vehicle>
    <vehicle id="180" depart="90.00" departLane="best" departPos="random_free" departSpeed="0.00">
        <route edges="-0.0.00"/>
    </vehicle>
    <vehicle id="181" depart="90.50" departLane="best" departPos="random_free" departSpeed="0.00">
        <route edges="0.0.00 -0.0.00"/>
    </vehicle>
    <vehicle id="182" depart="91.00" departLane="best" departPos="random_free" departSpeed="0.00">
        <route edges="0.0.00 -0.0.00"/>
    </vehicle>
    <vehicle id="183" depart="91.50" departLane="best" departPos="random_free" departSpeed="0.00">
        <route edges="-0.0.00"/>
    </vehicle>
    <vehicle id="184" depart="92.00" departLane="best" departPos="random_free" departSpeed="0.00">
        <route edges="0.0.00"/>
    </vehicle>
    <vehicle id="185" depart="92.50" departLane="best" departPos="random_free" departSpeed="0.00">
        <route edges="-0.0.00"/>
    </vehicle>
    <vehicle id="186" depart="93.00" departLane="best" departPos="random_free" departSpeed="0.00">
        <route edges="-0.0.00 0.0.00"/>
    </vehicle>
    <vehicle id="187" depart="93.50" departLane="best" departPos="random_free" departSpeed="0.00">
        <route edges="-0.0.00 0.0.00"/>
    </vehicle>
    <vehicle id="188" depart="94.00" departLane="best" departPos="random_free" departSpeed="0.00">
        <route edges="0.0.00"/>
    </vehicle>
    <vehicle id="189" depart="94.50" departLane="best" departPos="random_free" departSpeed="0.00">
        <route edges="0.0.00"/>
    </vehicle>
    <vehicle id="190" depart="95.00" departLane="best" departPos="random_free" departSpeed="0.00">
        <route edges="0.0.00 -0.0.00"/>
    </vehicle>
    <vehicle id="191" depart="95.50" departLane="best" departPos="random_free" departSpeed="0.00">
        <route edges="0.0.00"/>
    </vehicle>
    <vehicle id="192" depart="96.00" departLane="best" departPos="random_free" departSpeed="0.00">
        <route edges="-0.0.00"/>
    </vehicle>
    <vehicle id="193" depart="96.50" departLane="best" departPos="random_free" departSpeed="0.00">
        <route edges="0.0.00"/>
    </vehicle>
    <vehicle id="194" depart="97.00" departLane="best" departPos="random_free" departSpeed="0.00">
        <route edges="-0.0.00 0.0.00"/>
    </vehicle>