<?xml version='1.0' encoding='UTF-8'?>
<routes xmlns:xsi="http://www.w3.org/2001/XMLSchema-instance" xsi:noNamespaceSchemaLocation="http://sumo.dlr.de/xsd/routes_file.xsd">
    <vehicle id="0" type="vehicle.chevrolet.impala" depart="0.00">
        <route edges="-46.0.00 -47.0.00 34.0.00 -39.0.00 33.0.00 47.0.00 44.0.00 39.0.00 38.0.00 37.0.00 36.0.00 35.0.00 42.0.00 -23.0.00"/>
    </vehicle>
    <vehicle id="1" type="vehicle.micro.microlino" depart="1.00">
        <route edges="34.0.00 -39.0.00 33.0.00 47.0.00 44.0.00 39.0.00 31.0.00 -47.0.00 -48.0.00 -7.0.00 -8.0.00 52.0.00 27.0.00 26.0.00"/>
    </vehicle>
    <vehicle id="2" type="vehicle.tesla.model3" depart="2.00">
        <route edges="45.0.00 40.0.00 39.0.00 31.0.00 -47.0.00 -48.0.00 -7.0.00 -8.0.00 -9.0.00 -10.0.00 -11.0.00 3.0.00 2.0.00"/>
    </vehicle>
    <vehicle id="3" type="vehicle.mini.cooper_s" depart="3.00">
        <route edges="38.0.00 37.0.00 36.0.00 35.0.00 42.0.00 49.0.00 48.0.00 47.0.00 46.0.00"/>
    </vehicle>
    <vehicle id="4" type="vehicle.citroen.c3" depart="4.00">
        <route edges="-52.0.00 -9.0.00 17.0.00"/>
    </vehicle>
    <vehicle id="5" type="vehicle.ford.mustang" depart="5.00">
        <route edges="18.0.00 -10.0.00 -11.0.00 -12.0.00 -13.0.00 -14.0.00 -36.0.00 -37.0.00 -38.0.00 -39.0.00 33.0.00 47.0.00 44.0.00 39.0.00 38.0.00 37.0.00 36.0.00 35.0.00 42.0.00 49.0.00"/>
    </vehicle>
    <vehicle id="6" type="vehicle.ford.mustang" depart="6.00">
        <route edges="-5.0.00 -37.0.00 -38.0.00 -39.0.00 33.0.00 47.0.00 44.0.00 39.0.00 31.0.00 -47.0.00 -48.0.00 -7.0.00 -8.0.00 52.0.00 27.0.00 -30.0.00"/>
    </vehicle>
    <vehicle id="7" type="vehicle.lincoln.mkz_2017" depart="7.00">
        <route edges="30.0.00 29.0.00 28.0.00 -19.0.00 -5.0.00 -37.0.00 -38.0.00 -39.0.00 33.0.00 47.0.00 44.0.00 39.0.00 38.0.00 37.0.00 36.0.00 35.0.00 42.0.00 -23.0.00"/>
    </vehicle>
    <vehicle id="8" type="vehicle.jeep.wrangler_rubicon" depart="8.00">
        <route edges="52.0.00 27.0.00 26.0.00 -2.0.00 -3.0.00 -4.0.00 -5.0.00 -37.0.00 -38.0.00 -39.0.00 33.0.00 47.0.00 44.0.00 39.0.00 31.0.00 -47.0.00"/>
    </vehicle>
    <vehicle id="9" type="vehicle.volkswagen.t2" depart="9.00">
        <route edges="2.0.00 -26.0.00 29.0.00 10.0.00"/>
    </vehicle>
    <vehicle id="10" type="vehicle.carlamotors.carlacola" depart="10.00">
        <route edges="-36.0.00 5.0.00 19.0.00 18.0.00 9.0.00 52.0.00"/>
    </vehicle>
    <vehicle id="11" type="vehicle.toyota.prius" depart="11.00">
        <route edges="17.0.00 27.0.00 26.0.00 25.0.00 -14.0.00"/>
    </vehicle>
    <vehicle id="12" type="vehicle.nissan.micra" depart="12.00">
        <route edges="-49.0.00 -50.0.00 -43.0.00 14.0.00 13.0.00 21.0.00 2.0.00"/>
    </vehicle>
    <vehicle id="13" type="vehicle.nissan.micra" depart="13.00">
        <route edges="-16.0.00 27.0.00 -30.0.00 0.0.00"/>
    </vehicle>
    <vehicle id="14" type="vehicle.harley-davidson.low_rider" depart="14.00">
        <route edges="-49.0.00 -50.0.00 -15.0.00 -16.0.00"/>
    </vehicle>
    <vehicle id="15" type="vehicle.diamondback.century" depart="15.00">
        <route edges="30.0.00 26.0.00 -2.0.00 -3.0.00 -4.0.00 19.0.00"/>
    </vehicle>
    <vehicle id="16" type="vehicle.jeep.wrangler_rubicon" depart="16.00">
        <route edges="-50.0.00 -43.0.00 14.0.00"/>
    </vehicle>
    <vehicle id="17" type="vehicle.lincoln.mkz_2017" depart="17.00">
        <route edges="-23.0.00 40.0.00 39.0.00 31.0.00 -47.0.00 -48.0.00 -7.0.00 -8.0.00 -9.0.00 -10.0.00 -11.0.00 -12.0.00 -13.0.00"/>
    </vehicle>
    <vehicle id="18" type="vehicle.jeep.wrangler_rubicon" depart="18.00">
        <route edges="13.0.00 12.0.00"/>
    </vehicle>
    <vehicle id="19" type="vehicle.yamaha.yzf" depart="19.00">
        <route edges="18.0.00 -10.0.00 -11.0.00 -12.0.00 -13.0.00 -14.0.00 -36.0.00 -37.0.00 -38.0.00 -39.0.00 -40.0.00 -41.0.00 -22.0.00"/>
    </vehicle>
    <vehicle id="20" type="vehicle.mini.cooper_s" depart="20.00">
        <route edges="42.0.00 49.0.00 48.0.00 47.0.00 44.0.00 39.0.00 31.0.00 -47.0.00 -48.0.00 -7.0.00 -8.0.00 52.0.00 -17.0.00 9.0.00 8.0.00 7.0.00"/>
    </vehicle>
    <vehicle id="21" type="vehicle.nissan.patrol" depart="21.00">
        <route edges="48.0.00 47.0.00 44.0.00 39.0.00 38.0.00 37.0.00 36.0.00 35.0.00 42.0.00"/>
    </vehicle>
    <vehicle id="22" type="vehicle.bmw.grandtourer" depart="22.00">
        <route edges="18.0.00 -10.0.00 -29.0.00 26.0.00 -2.0.00"/>
    </vehicle>
    <vehicle id="23" type="vehicle.mini.cooper_s" depart="23.00">
        <route edges="-17.0.00 -10.0.00 -29.0.00 26.0.00"/>
    </vehicle>
    <vehicle id="24" type="vehicle.diamondback.century" depart="24.00">
        <route edges="-10.0.00 28.0.00 18.0.00 9.0.00 8.0.00"/>
    </vehicle>
    <vehicle id="25" type="vehicle.tesla.model3" depart="25.00">
        <route edges="29.0.00 10.0.00 17.0.00 16.0.00 -51.0.00 -8.0.00"/>
    </vehicle>
    <vehicle id="26" type="vehicle.dodge.charger_police" depart="26.00">
        <route edges="39.0.00 31.0.00 -47.0.00 -48.0.00 -7.0.00 -8.0.00 52.0.00 27.0.00 29.0.00 10.0.00"/>
    </vehicle>
    <vehicle id="27" type="vehicle.chevrolet.impala" depart="27.00">
        <route edges="47.0.00"/>
    </vehicle>
    <vehicle id="28" type="vehicle.toyota.prius" depart="28.00">
        <route edges="47.0.00 44.0.00 39.0.00 31.0.00 -47.0.00 -48.0.00 -7.0.00 -8.0.00 52.0.00 27.0.00 29.0.00 10.0.00"/>
    </vehicle>
    <vehicle id="29" type="vehicle.micro.microlino" depart="29.00">
        <route edges="28.0.00 -19.0.00 4.0.00 -12.0.00 -13.0.00 -14.0.00 -36.0.00"/>
    </vehicle>
    <vehicle id="30" type="vehicle.tesla.cybertruck" depart="30.00">
        <route edges="34.0.00 -39.0.00 33.0.00 47.0.00 44.0.00 39.0.00 31.0.00 -47.0.00 -48.0.00 -7.0.00 -8.0.00 -9.0.00 -10.0.00"/>
    </vehicle>
    <vehicle id="31" type="vehicle.tesla.cybertruck" depart="31.00">
        <route edges="37.0.00 36.0.00 35.0.00 42.0.00 49.0.00 48.0.00 47.0.00 44.0.00 39.0.00 31.0.00 -47.0.00 -48.0.00"/>
    </vehicle>
    <vehicle id="32" type="vehicle.lincoln.mkz_2017" depart="32.00">
        <route edges="39.0.00 31.0.00 -47.0.00 -48.0.00 -7.0.00 51.0.00"/>
    </vehicle>
    <vehicle id="33" type="vehicle.citroen.c3" depart="33.00">
        <route edges="-16.0.00 -17.0.00 -18.0.00 -19.0.00 -5.0.00 -37.0.00 -38.0.00 -39.0.00 33.0.00 47.0.00 46.0.00 45.0.00 40.0.00"/>
    </vehicle>
    <vehicle id="34" type="vehicle.diamondback.century" depart="34.00">
        <route edges="-28.0.00 -11.0.00 -4.0.00 -20.0.00 13.0.00"/>
    </vehicle>
    <vehicle id="35" type="vehicle.gazelle.omafiets" depart="35.00">
        <route edges="-10.0.00 -11.0.00 -4.0.00 -5.0.00"/>
    </vehicle>
    <vehicle id="36" type="vehicle.jeep.wrangler_rubicon" depart="36.00">
        <route edges="39.0.00 31.0.00 -47.0.00 34.0.00 -39.0.00 33.0.00"/>
    </vehicle>
    <vehicle id="37" type="vehicle.audi.etron" depart="37.00">
        <route edges="-43.0.00 14.0.00 -25.0.00"/>
    </vehicle>
    <vehicle id="38" type="vehicle.yamaha.yzf" depart="38.00">
        <route edges="49.0.00 48.0.00 47.0.00 44.0.00 39.0.00 31.0.00 -47.0.00 -48.0.00 -7.0.00 -8.0.00 -9.0.00 -18.0.00 -28.0.00"/>
    </vehicle>
    <vehicle id="39" type="vehicle.gazelle.omafiets" depart="39.00">
        <route edges="38.0.00 37.0.00 36.0.00 35.0.00 42.0.00 49.0.00 48.0.00 47.0.00 44.0.00 39.0.00 31.0.00 -47.0.00 -48.0.00 -7.0.00 -8.0.00 -9.0.00"/>
    </vehicle>
    <vehicle id="40" type="vehicle.citroen.c3" depart="40.00">
        <route edges="13.0.00 12.0.00 -4.0.00 -5.0.00 -37.0.00"/>
    </vehicle>
    <vehicle id="41" type="vehicle.bh.crossbike" depart="41.00">
        <route edges="-39.0.00 33.0.00 47.0.00 44.0.00 39.0.00 31.0.00 -47.0.00 -48.0.00 -7.0.00 -8.0.00 -9.0.00 17.0.00"/>
    </vehicle>
    <vehicle id="42" type="vehicle.bh.crossbike" depart="42.00">
        <route edges="-39.0.00 33.0.00 47.0.00 44.0.00 39.0.00 31.0.00 -47.0.00 -48.0.00 -7.0.00 -8.0.00 -9.0.00 -18.0.00 -19.0.00 -5.0.00 -37.0.00 -38.0.00"/>
    </vehicle>
    <vehicle id="43" type="vehicle.lincoln.mkz_2017" depart="43.00">
        <route edges="-18.0.00 -19.0.00 -5.0.00 -37.0.00 -38.0.00 -39.0.00 33.0.00 47.0.00 44.0.00 39.0.00 31.0.00 -47.0.00 -48.0.00 -7.0.00"/>
    </vehicle>
    <vehicle id="44" type="vehicle.mercedes.coupe" depart="44.00">
        <route edges="0.0.00 15.0.00 -43.0.00 -36.0.00 -37.0.00 -38.0.00 -39.0.00 33.0.00 47.0.00 46.0.00 45.0.00 40.0.00"/>
    </vehicle>
    <vehicle id="45" type="vehicle.volkswagen.t2" depart="45.00">
        <route edges="7.0.00 -49.0.00 -50.0.00"/>
    </vehicle>
    <vehicle id="46" type="vehicle.bh.crossbike" depart="46.00">
        <route edges="-22.0.00 37.0.00 36.0.00 35.0.00 42.0.00 -23.0.00 -41.0.00"/>
    </vehicle>
    <vehicle id="47" type="vehicle.mercedes.coupe" depart="47.00">
        <route edges="26.0.00 -2.0.00 -3.0.00 11.0.00 10.0.00 9.0.00 52.0.00"/>
    </vehicle>
    <vehicle id="48" type="vehicle.citroen.c3" depart="48.00">
        <route edges="46.0.00 45.0.00 40.0.00 39.0.00 31.0.00 -47.0.00 34.0.00 -39.0.00 33.0.00 47.0.00"/>
    </vehicle>
    <vehicle id="49" type="vehicle.lincoln.mkz_2017" depart="49.00">
        <route edges="-11.0.00 -12.0.00 -13.0.00"/>
    </vehicle>
    <vehicle id="50" type="vehicle.gazelle.omafiets" depart="50.00">
        <route edges="4.0.00 3.0.00 2.0.00 -26.0.00 -27.0.00 -52.0.00 -9.0.00"/>
    </vehicle>
    <vehicle id="51" type="vehicle.ford.mustang" depart="51.00">
        <route edges="-19.0.00 -5.0.00 -37.0.00"/>
    </vehicle>
    <vehicle id="52" type="vehicle.tesla.cybertruck" depart="52.00">
        <route edges="-20.0.00 -25.0.00 -26.0.00 -30.0.00 -1.0.00"/>
    </vehicle>
    <vehicle id="53" type="vehicle.harley-davidson.low_rider" depart="53.00">
        <route edges="34.0.00 -39.0.00 33.0.00 47.0.00 44.0.00 39.0.00 31.0.00 -47.0.00 -48.0.00 -7.0.00 -8.0.00 52.0.00 27.0.00 26.0.00"/>
    </vehicle>
    <vehicle id="54" type="vehicle.kawasaki.ninja" depart="54.00">
        <route edges="-25.0.00 -2.0.00 -3.0.00 -4.0.00 19.0.00 -28.0.00"/>
    </vehicle>
    <vehicle id="55" type="vehicle.tesla.cybertruck" depart="55.00">
        <route edges="-10.0.00 -29.0.00 26.0.00 -2.0.00"/>
    </vehicle>
    <vehicle id="56" type="vehicle.mercedes.coupe" depart="56.00">
        <route edges="36.0.00 35.0.00 42.0.00 49.0.00 48.0.00 47.0.00 44.0.00 39.0.00 31.0.00 -47.0.00 -48.0.00 -7.0.00 51.0.00"/>
    </vehicle>
    <vehicle id="57" type="vehicle.micro.microlino" depart="57.00">
        <route edges="27.0.00 26.0.00 -2.0.00 -3.0.00 -12.0.00 -13.0.00"/>
    </vehicle>
    <vehicle id="58" type="vehicle.tesla.cybertruck" depart="58.00">
        <route edges="-8.0.00"/>
    </vehicle>
    <vehicle id="59" type="vehicle.bmw.grandtourer" depart="59.00">
        <route edges="-15.0.00 -0.0.00 -1.0.00 -2.0.00 -3.0.00 -4.0.00 -5.0.00 -37.0.00 -38.0.00 -39.0.00 33.0.00"/>
    </vehicle>
    <vehicle id="60" type="vehicle.lincoln.mkz_2017" depart="60.00">
        <route edges="-36.0.00 -37.0.00 -38.0.00 -39.0.00 33.0.00 47.0.00 44.0.00 39.0.00 31.0.00 -47.0.00 -48.0.00"/>
    </vehicle>
    <vehicle id="61" type="vehicle.kawasaki.ninja" depart="61.00">
        <route edges="-12.0.00 -13.0.00 -14.0.00 -36.0.00 -37.0.00 -38.0.00 -39.0.00 33.0.00 47.0.00 44.0.00 39.0.00 31.0.00 -47.0.00 -48.0.00"/>
    </vehicle>
    <vehicle id="62" type="vehicle.toyota.prius" depart="62.00">
        <route edges="-30.0.00 0.0.00 -51.0.00 7.0.00 -49.0.00"/>
    </vehicle>
    <vehicle id="63" type="vehicle.citroen.c3" depart="63.00">
        <route edges="-50.0.00 -15.0.00 -0.0.00 -1.0.00 -2.0.00 -3.0.00 -4.0.00 -5.0.00"/>
    </vehicle>
    <vehicle id="64" type="vehicle.citroen.c3" depart="64.00">
        <route edges="1.0.00 30.0.00 29.0.00 28.0.00 -19.0.00 -5.0.00 -37.0.00 -38.0.00 -39.0.00 33.0.00 47.0.00 46.0.00"/>
    </vehicle>
    <vehicle id="65" type="vehicle.kawasaki.ninja" depart="65.00">
        <route edges="11.0.00 -29.0.00 26.0.00 1.0.00"/>
    </vehicle>
    <vehicle id="66" type="vehicle.mercedes.coupe" depart="66.00">
        <route edges="-20.0.00 13.0.00 12.0.00 3.0.00"/>
    </vehicle>
    <vehicle id="67" type="vehicle.chevrolet.impala" depart="67.00">
        <route edges="-29.0.00 -27.0.00 -17.0.00 9.0.00 52.0.00"/>
    </vehicle>
    <vehicle id="68" type="vehicle.diamondback.century" depart="68.00">
        <route edges="35.0.00 42.0.00 49.0.00 48.0.00 47.0.00 44.0.00"/>
    </vehicle>
    <vehicle id="69" type="vehicle.audi.tt" depart="69.00">
        <route edges="14.0.00 13.0.00 12.0.00 -4.0.00 -5.0.00 -37.0.00 -38.0.00 -39.0.00 33.0.00 47.0.00 44.0.00 39.0.00 31.0.00 -47.0.00 -48.0.00 -7.0.00"/>
    </vehicle>
    <vehicle id="70" type="vehicle.audi.a2" depart="70.00">
        <route edges="38.0.00 37.0.00 36.0.00 35.0.00 42.0.00 49.0.00 48.0.00 47.0.00 44.0.00 39.0.00 31.0.00 -47.0.00 34.0.00"/>
    </vehicle>
    <vehicle id="71" type="vehicle.jeep.wrangler_rubicon" depart="71.00">
        <route edges="37.0.00 36.0.00 35.0.00 42.0.00 49.0.00 48.0.00 47.0.00 44.0.00 39.0.00 31.0.00 -47.0.00 -48.0.00 -7.0.00 -8.0.00 -9.0.00 -10.0.00 28.0.00 18.0.00"/>
    </vehicle>
    <vehicle id="72" type="vehicle.mercedes.coupe" depart="72.00">
        <route edges="-7.0.00 -8.0.00 -9.0.00 17.0.00 -52.0.00"/>
    </vehicle>
    <vehicle id="73" type="vehicle.mercedes.coupe" depart="73.00">
        <route edges="-47.0.00 -48.0.00 -7.0.00 -8.0.00 -9.0.00 -10.0.00 -11.0.00 -12.0.00 -13.0.00 -14.0.00"/>
    </vehicle>
    <vehicle id="74" type="vehicle.chevrolet.impala" depart="74.00">
        <route edges="-3.0.00 -4.0.00 -5.0.00 -37.0.00 -38.0.00 -39.0.00 33.0.00 47.0.00 46.0.00"/>
    </vehicle>
    <vehicle id="75" type="vehicle.diamondback.century" depart="75.00">
        <route edges="-11.0.00 3.0.00 2.0.00 1.0.00 0.0.00 15.0.00 -43.0.00 14.0.00"/>
    </vehicle>
    <vehicle id="76" type="vehicle.carlamotors.carlacola" depart="76.00">
        <route edges="19.0.00 18.0.00 9.0.00 8.0.00 7.0.00"/>
    </vehicle>
    <vehicle id="77" type="vehicle.citroen.c3" depart="77.00">
        <route edges="48.0.00 47.0.00 44.0.00 39.0.00 31.0.00 -47.0.00 34.0.00 -39.0.00 -40.0.00 -41.0.00"/>
    </vehicle>
    <vehicle id="78" type="vehicle.mini.cooper_s" depart="78.00">
        <route edges="-36.0.00 5.0.00"/>
    </vehicle>
    <vehicle id="79" type="vehicle.ford.mustang" depart="79.00">
        <route edges="-15.0.00 -16.0.00 -17.0.00 9.0.00"/>
    </vehicle>
    <vehicle id="80" type="vehicle.carlamotors.carlacola" depart="80.00">
        <route edges="37.0.00 36.0.00 35.0.00 42.0.00 49.0.00 48.0.00 47.0.00 44.0.00 39.0.00 31.0.00 -47.0.00 -48.0.00 -7.0.00 51.0.00 -0.0.00 30.0.00"/>
    </vehicle>
    <vehicle id="81" type="vehicle.audi.etron" depart="81.00">
        <route edges="34.0.00 -39.0.00 33.0.00 47.0.00 44.0.00 39.0.00 31.0.00 -47.0.00 -48.0.00 -7.0.00 -8.0.00 -9.0.00 -18.0.00 -19.0.00"/>
    </vehicle>
    <vehicle id="82" type="vehicle.toyota.prius" depart="82.00">
        <route edges="14.0.00 13.0.00 21.0.00 2.0.00 1.0.00 0.0.00 -51.0.00 -8.0.00"/>
    </vehicle>
    <vehicle id="83" type="vehicle.volkswagen.t2" depart="83.00">
        <route edges="-18.0.00 -28.0.00 -29.0.00 -30.0.00 0.0.00 -16.0.00"/>
    </vehicle>
    <vehicle id="84" type="vehicle.nissan.micra" depart="84.00">
        <route edges="-38.0.00 -39.0.00 33.0.00 47.0.00 44.0.00 39.0.00 31.0.00 -47.0.00 -48.0.00 -7.0.00 -8.0.00 -9.0.00 17.0.00"/>
    </vehicle>
    <vehicle id="85" type="vehicle.gazelle.omafiets" depart="85.00">
        <route edges="-18.0.00 -28.0.00 10.0.00"/>
    </vehicle>
    <vehicle id="86" type="vehicle.diamondback.century" depart="86.00">
        <route edges="-16.0.00 -17.0.00 -10.0.00 -29.0.00 -27.0.00"/>
    </vehicle>
    <vehicle id="87" type="vehicle.jeep.wrangler_rubicon" depart="87.00">
        <route edges="36.0.00 35.0.00 42.0.00 49.0.00 48.0.00 47.0.00 44.0.00 39.0.00 31.0.00 -47.0.00 -48.0.00 -7.0.00 -8.0.00 52.0.00 27.0.00 26.0.00 25.0.00"/>
    </vehicle>
    <vehicle id="88" type="vehicle.chevrolet.impala" depart="88.00">
        <route edges="-49.0.00 -50.0.00 -15.0.00 -0.0.00 30.0.00 29.0.00"/>
    </vehicle>
    <vehicle id="89" type="vehicle.chevrolet.impala" depart="89.00">
        <route edges="-38.0.00 -39.0.00 33.0.00 47.0.00 44.0.00 39.0.00 31.0.00 -47.0.00 -48.0.00"/>
    </vehicle>
    <vehicle id="90" type="vehicle.yamaha.yzf" depart="90.00">
        <route edges="39.0.00 31.0.00 -47.0.00 -48.0.00 -7.0.00 -8.0.00 -9.0.00 -10.0.00 -11.0.00 -4.0.00 19.0.00"/>
    </vehicle>
    <vehicle id="91" type="vehicle.mercedes.coupe" depart="91.00">
        <route edges="51.0.00 -16.0.00 27.0.00"/>
    </vehicle>
    <vehicle id="92" type="vehicle.kawasaki.ninja" depart="92.00">
        <route edges="-41.0.00 -46.0.00 -47.0.00 -48.0.00 -7.0.00 -8.0.00 52.0.00 27.0.00 26.0.00 -2.0.00 -3.0.00"/>
    </vehicle>
    <vehicle id="93" type="vehicle.diamondback.century" depart="93.00">
        <route edges="-52.0.00 -9.0.00 -18.0.00 -28.0.00 10.0.00"/>
    </vehicle>
    <vehicle id="94" type="vehicle.bh.crossbike" depart="94.00">
        <route edges="-5.0.00 -37.0.00 -38.0.00 -39.0.00 33.0.00 47.0.00 44.0.00 39.0.00 31.0.00 -47.0.00 -48.0.00 -7.0.00 -8.0.00 -9.0.00 17.0.00"/>
    </vehicle>
    <vehicle id="95" type="vehicle.yamaha.yzf" depart="95.00">
        <route edges="-47.0.00 -48.0.00 -7.0.00 -8.0.00 -9.0.00 -18.0.00 -19.0.00 -5.0.00"/>
    </vehicle>
    <vehicle id="96" type="vehicle.mercedes.coupe" depart="96.00">
        <route edges="3.0.00 2.0.00 -26.0.00 -27.0.00 16.0.00 -0.0.00"/>
    </vehicle>
    <vehicle id="97" type="vehicle.nissan.micra" depart="97.00">
        <route edges="-29.0.00"/>
    </vehicle>
    <vehicle id="98" type="vehicle.yamaha.yzf" depart="98.00">
        <route edges="-4.0.00 -20.0.00"/>
    </vehicle>
    <vehicle id="99" type="vehicle.audi.etron" depart="99.00">
        <route edges="-41.0.00 -46.0.00 -47.0.00 -48.0.00 -7.0.00 -8.0.00 52.0.00 27.0.00 26.0.00 -2.0.00"/>
    </vehicle>
    <vehicle id="100" type="vehicle.bmw.grandtourer" depart="100.00">
        <route edges="-28.0.00 -11.0.00 -12.0.00 -13.0.00"/>
    </vehicle>
    <vehicle id="101" type="vehicle.audi.a2" depart="101.00">
        <route edges="-29.0.00 -27.0.00 -17.0.00 -10.0.00"/>
    </vehicle>
    <vehicle id="102" type="vehicle.harley-davidson.low_rider" depart="102.00">
        <route edges="39.0.00 31.0.00 -47.0.00 34.0.00 -39.0.00 33.0.00 47.0.00 46.0.00 45.0.00"/>
    </vehicle>
    <vehicle id="103" type="vehicle.dodge.charger_police" depart="103.00">
        <route edges="-19.0.00 4.0.00 -12.0.00 -13.0.00"/>
    </vehicle>
    <vehicle id="104" type="vehicle.tesla.model3" depart="104.00">
        <route edges="34.0.00 -39.0.00 33.0.00 47.0.00 44.0.00 39.0.00 31.0.00 -47.0.00"/>
    </vehicle>
    <vehicle id="105" type="vehicle.ford.mustang" depart="105.00">
        <route edges="8.0.00 51.0.00 -0.0.00 30.0.00 29.0.00 -11.0.00"/>
    </vehicle>
    <vehicle id="106" type="vehicle.mercedes.coupe" depart="106.00">
        <route edges="-36.0.00 -37.0.00 -38.0.00 -39.0.00 33.0.00 47.0.00 44.0.00 39.0.00 38.0.00 37.0.00 36.0.00 35.0.00"/>
    </vehicle>
    <vehicle id="107" type="vehicle.tesla.cybertruck" depart="107.00">
        <route edges="-28.0.00 10.0.00 17.0.00 27.0.00 29.0.00"/>
    </vehicle>
    <vehicle id="108" type="vehicle.audi.a2" depart="108.00">
        <route edges="-23.0.00 40.0.00 39.0.00 31.0.00 -47.0.00 34.0.00 -39.0.00 33.0.00 47.0.00 44.0.00"/>
    </vehicle>
    <vehicle id="109" type="vehicle.ford.mustang" depart="109.00">
        <route edges="5.0.00 19.0.00 -28.0.00 -29.0.00 -30.0.00 0.0.00 -51.0.00"/>
    </vehicle>
    <vehicle id="110" type="vehicle.tesla.cybertruck" depart="110.00">
        <route edges="4.0.00 11.0.00 10.0.00 17.0.00 16.0.00"/>
    </vehicle>
    <vehicle id="111" type="vehicle.tesla.model3" depart="111.00">
        <route edges="26.0.00 1.0.00 0.0.00"/>
    </vehicle>
    <vehicle id="112" type="vehicle.diamondback.century" depart="112.00">
        <route edges="33.0.00 47.0.00 44.0.00 39.0.00 31.0.00 -47.0.00 34.0.00 -39.0.00 -40.0.00 -41.0.00 -22.0.00"/>
    </vehicle>
    <vehicle id="113" type="vehicle.dodge.charger_police" depart="113.00">
        <route edges="47.0.00 44.0.00 39.0.00 31.0.00 -47.0.00 -48.0.00 -7.0.00 -8.0.00 52.0.00 27.0.00 26.0.00 25.0.00 13.0.00"/>
    </vehicle>
    <vehicle id="114" type="vehicle.gazelle.omafiets" depart="114.00">
        <route edges="-29.0.00 -30.0.00 0.0.00 15.0.00 -43.0.00"/>
    </vehicle>
    <vehicle id="115" type="vehicle.ford.mustang" depart="115.00">
        <route edges="-2.0.00 -3.0.00 11.0.00 -29.0.00 -30.0.00 -1.0.00"/>
    </vehicle>
    <vehicle id="116" type="vehicle.bh.crossbike" depart="116.00">
        <route edges="28.0.00 18.0.00 9.0.00 8.0.00 7.0.00 -49.0.00 -50.0.00"/>
    </vehicle>
    <vehicle id="117" type="vehicle.toyota.prius" depart="117.00">
        <route edges="-52.0.00 -9.0.00 -18.0.00 -19.0.00 -5.0.00 -37.0.00 -38.0.00 -39.0.00 33.0.00 47.0.00 46.0.00 45.0.00"/>
    </vehicle>
    <vehicle id="118" type="vehicle.bh.crossbike" depart="118.00">
        <route edges="3.0.00 2.0.00 -26.0.00 -30.0.00"/>
    </vehicle>
    <vehicle id="119" type="vehicle.seat.leon" depart="119.00">
        <route edges="7.0.00 -49.0.00 -50.0.00 -43.0.00 -36.0.00 -37.0.00 -38.0.00 -39.0.00 33.0.00 47.0.00 44.0.00 39.0.00 38.0.00 37.0.00"/>
    </vehicle>
    <vehicle id="120" type="vehicle.kawasaki.ninja" depart="120.00">
        <route edges="-47.0.00 34.0.00 -39.0.00 -40.0.00 -41.0.00 -46.0.00"/>
    </vehicle>
    <vehicle id="121" type="vehicle.mercedes.coupe" depart="121.00">
        <route edges="-11.0.00 -12.0.00 -13.0.00 -14.0.00 -36.0.00 -37.0.00 -38.0.00 -39.0.00 33.0.00 47.0.00 44.0.00 39.0.00 38.0.00 37.0.00 36.0.00 35.0.00"/>
    </vehicle>
    <vehicle id="122" type="vehicle.tesla.model3" depart="122.00">
        <route edges="-3.0.00 -4.0.00 -5.0.00 -37.0.00 -38.0.00 -39.0.00 33.0.00 47.0.00"/>
    </vehicle>
    <vehicle id="123" type="vehicle.ford.mustang" depart="123.00">
        <route edges="5.0.00 19.0.00 18.0.00 17.0.00 -52.0.00 -9.0.00"/>
    </vehicle>
    <vehicle id="124" type="vehicle.bh.crossbike" depart="124.00">
        <route edges="5.0.00 19.0.00 18.0.00 17.0.00 -52.0.00 -9.0.00"/>
    </vehicle>
    <vehicle id="125" type="vehicle.seat.leon" depart="125.00">
        <route edges="-14.0.00 -36.0.00 5.0.00 19.0.00 18.0.00 17.0.00 -52.0.00"/>
    </vehicle>
    <vehicle id="126" type="vehicle.nissan.patrol" depart="126.00">
        <route edges="37.0.00 36.0.00 35.0.00 42.0.00 49.0.00 48.0.00 47.0.00 44.0.00 39.0.00 31.0.00 -47.0.00 34.0.00 -39.0.00 -40.0.00"/>
    </vehicle>
    <vehicle id="127" type="vehicle.bh.crossbike" depart="127.00">
        <route edges="-25.0.00 -2.0.00 -3.0.00"/>
    </vehicle>
    <vehicle id="128" type="vehicle.dodge.charger_police" depart="128.00">
        <route edges="27.0.00 26.0.00 -2.0.00 -3.0.00 -4.0.00 -5.0.00 -37.0.00 -38.0.00 -39.0.00 33.0.00 47.0.00 44.0.00 39.0.00 38.0.00 37.0.00 36.0.00 35.0.00"/>
    </vehicle>
    <vehicle id="129" type="vehicle.yamaha.yzf" depart="129.00">
        <route edges="9.0.00 52.0.00 27.0.00 29.0.00"/>
    </vehicle>
    <vehicle id="130" type="vehicle.nissan.patrol" depart="130.00">
        <route edges="-12.0.00 -13.0.00 -14.0.00 -36.0.00 -37.0.00 -38.0.00 -39.0.00 33.0.00 47.0.00 44.0.00 39.0.00 38.0.00 37.0.00 36.0.00 35.0.00 42.0.00"/>
    </vehicle>
    <vehicle id="131" type="vehicle.mini.cooper_s" depart="131.00">
        <route edges="-26.0.00 -30.0.00 0.0.00 -51.0.00"/>
    </vehicle>
    <vehicle id="132" type="vehicle.diamondback.century" depart="132.00">
        <route edges="4.0.00 -12.0.00 -13.0.00 -14.0.00 -36.0.00 5.0.00"/>
    </vehicle>
    <vehicle id="133" type="vehicle.mercedes.coupe" depart="133.00">
        <route edges="-9.0.00 17.0.00 16.0.00"/>
    </vehicle>
    <vehicle id="134" type="vehicle.diamondback.century" depart="134.00">
        <route edges="46.0.00 45.0.00 40.0.00 39.0.00 31.0.00 -47.0.00 -48.0.00 -7.0.00 -8.0.00 52.0.00 -17.0.00 9.0.00 8.0.00"/>
    </vehicle>
    <vehicle id="135" type="vehicle.kawasaki.ninja" depart="135.00">
        <route edges="10.0.00 -18.0.00 -19.0.00 -5.0.00 -37.0.00 -38.0.00 -39.0.00 33.0.00 47.0.00 44.0.00 39.0.00 38.0.00"/>
    </vehicle>
    <vehicle id="136" type="vehicle.citroen.c3" depart="136.00">
        <route edges="15.0.00 -43.0.00 14.0.00 13.0.00"/>
    </vehicle>
    <vehicle id="137" type="vehicle.mini.cooper_s" depart="137.00">
        <route edges="-14.0.00 -36.0.00 -37.0.00 -38.0.00 -39.0.00 33.0.00"/>
    </vehicle>
    <vehicle id="138" type="vehicle.carlamotors.carlacola" depart="138.00">
        <route edges="27.0.00 29.0.00 28.0.00 -19.0.00 4.0.00"/>
    </vehicle>
    <vehicle id="139" type="vehicle.chevrolet.impala" depart="139.00">
        <route edges="-41.0.00 -46.0.00 -47.0.00 -48.0.00 -7.0.00 -8.0.00 -9.0.00 -18.0.00 -28.0.00"/>
    </vehicle>
    <vehicle id="140" type="vehicle.citroen.c3" depart="140.00">
        <route edges="14.0.00 24.0.00 4.0.00 -12.0.00 -13.0.00"/>
    </vehicle>
    <vehicle id="141" type="vehicle.bmw.grandtourer" depart="141.00">
        <route edges="-19.0.00 4.0.00 11.0.00 10.0.00 17.0.00 16.0.00 -0.0.00"/>
    </vehicle>
    <vehicle id="142" type="vehicle.dodge.charger_police" depart="142.00">
        <route edges="25.0.00 13.0.00 21.0.00 2.0.00 1.0.00 0.0.00 15.0.00 -43.0.00"/>
    </vehicle>
    <vehicle id="143" type="vehicle.nissan.patrol" depart="143.00">
        <route edges="-8.0.00 -9.0.00 -18.0.00 -19.0.00 -5.0.00 -37.0.00 -38.0.00 -39.0.00 33.0.00 47.0.00 44.0.00 39.0.00 38.0.00 37.0.00"/>
    </vehicle>
    <vehicle id="144" type="vehicle.audi.a2" depart="144.00">
        <route edges="-29.0.00 26.0.00 -2.0.00 -3.0.00 -4.0.00 -20.0.00"/>
    </vehicle>
    <vehicle id="145" type="vehicle.audi.tt" depart="145.00">
        <route edges="0.0.00 15.0.00 -43.0.00 -36.0.00 -37.0.00 -38.0.00 -39.0.00 33.0.00 47.0.00 44.0.00 39.0.00 31.0.00"/>
    </vehicle>
    <vehicle id="146" type="vehicle.lincoln.mkz_2017" depart="146.00">
        <route edges="51.0.00 -16.0.00 -17.0.00 -10.0.00"/>
    </vehicle>
    <vehicle id="147" type="vehicle.bmw.grandtourer" depart="147.00">
        <route edges="24.0.00 19.0.00 18.0.00"/>
    </vehicle>
    <vehicle id="148" type="vehicle.audi.a2" depart="148.00">
        <route edges="-1.0.00 -26.0.00 -27.0.00 -52.0.00 8.0.00 7.0.00 -49.0.00 -50.0.00"/>
    </vehicle>
    <vehicle id="149" type="vehicle.nissan.micra" depart="149.00">
        <route edges="46.0.00 45.0.00 40.0.00 39.0.00 31.0.00 -47.0.00 -48.0.00 -7.0.00 -8.0.00 52.0.00 16.0.00 -51.0.00"/>
    </vehicle>
    <vehicle id="150" type="vehicle.citroen.c3" depart="150.00">
        <route edges="-10.0.00 -11.0.00 -12.0.00 -13.0.00 -14.0.00 -36.0.00 -37.0.00 -38.0.00 -39.0.00 33.0.00 47.0.00 44.0.00 39.0.00 38.0.00 37.0.00 36.0.00 35.0.00 42.0.00 -23.0.00"/>
    </vehicle>
    <vehicle id="151" type="vehicle.lincoln.mkz_2017" depart="151.00">
        <route edges="-37.0.00 -38.0.00 -39.0.00 33.0.00 47.0.00 44.0.00 39.0.00 31.0.00 -47.0.00 -48.0.00 -49.0.00 -50.0.00 -43.0.00"/>
    </vehicle>
    <vehicle id="152" type="vehicle.bh.crossbike" depart="152.00">
        <route edges="31.0.00 -47.0.00 -48.0.00 -7.0.00 -8.0.00 -9.0.00 -18.0.00 -19.0.00 -5.0.00 -37.0.00"/>
    </vehicle>
    <vehicle id="153" type="vehicle.volkswagen.t2" depart="153.00">
        <route edges="-5.0.00 -37.0.00 -38.0.00 -39.0.00 33.0.00 47.0.00 44.0.00 39.0.00 31.0.00 -47.0.00 -48.0.00 -49.0.00"/>
    </vehicle>
    <vehicle id="154" type="vehicle.harley-davidson.low_rider" depart="154.00">
        <route edges="-7.0.00 -8.0.00 52.0.00 27.0.00 26.0.00 -2.0.00"/>
    </vehicle>
    <vehicle id="155" type="vehicle.harley-davidson.low_rider" depart="155.00">
        <route edges="-18.0.00 -19.0.00 4.0.00 -12.0.00 -13.0.00"/>
    </vehicle>
    <vehicle id="156" type="vehicle.micro.microlino" depart="156.00">
        <route edges="34.0.00 -39.0.00 33.0.00 47.0.00 44.0.00 39.0.00 31.0.00 -47.0.00"/>
    </vehicle>
    <vehicle id="157" type="vehicle.audi.tt" depart="157.00">
        <route edges="-0.0.00 30.0.00 -27.0.00 -17.0.00"/>
    </vehicle>
    <vehicle id="158" type="vehicle.bmw.grandtourer" depart="158.00">
        <route edges="19.0.00 -28.0.00 -11.0.00 -12.0.00 -13.0.00 -14.0.00 -36.0.00 -37.0.00 -38.0.00 -39.0.00 33.0.00"/>
    </vehicle>
    <vehicle id="159" type="vehicle.seat.leon" depart="159.00">
        <route edges="2.0.00 1.0.00 0.0.00"/>
    </vehicle>
    <vehicle id="160" type="vehicle.lincoln.mkz_2017" depart="160.00">
        <route edges="-40.0.00 -41.0.00 -46.0.00 -47.0.00 -48.0.00 -7.0.00 -8.0.00 -9.0.00 -10.0.00 -11.0.00"/>
    </vehicle>
    <vehicle id="161" type="vehicle.citroen.c3" depart="161.00">
        <route edges="-0.0.00 30.0.00 29.0.00 10.0.00 -18.0.00"/>
    </vehicle>
    <vehicle id="162" type="vehicle.citroen.c3" depart="162.00">
        <route edges="-40.0.00 -41.0.00 -22.0.00 37.0.00"/>
    </vehicle>
    <vehicle id="163" type="vehicle.mini.cooper_s" depart="163.00">
        <route edges="12.0.00 -4.0.00 -5.0.00 -37.0.00 -38.0.00 -39.0.00 -40.0.00 -41.0.00"/>
    </vehicle>
    <vehicle id="164" type="vehicle.volkswagen.t2" depart="164.00">
        <route edges="45.0.00 40.0.00 39.0.00 31.0.00 -47.0.00 34.0.00 -39.0.00 -40.0.00 -41.0.00 -46.0.00"/>
    </vehicle>
    <vehicle id="165" type="vehicle.jeep.wrangler_rubicon" depart="165.00">
        <route edges="31.0.00 -47.0.00 -48.0.00 -7.0.00 -8.0.00 -9.0.00 -18.0.00 -19.0.00 -5.0.00"/>
    </vehicle>
    <vehicle id="166" type="vehicle.citroen.c3" depart="166.00">
        <route edges="3.0.00 2.0.00 25.0.00 -14.0.00 -36.0.00 -37.0.00 -38.0.00 -39.0.00 -40.0.00 -41.0.00"/>
    </vehicle>
    <vehicle id="167" type="vehicle.nissan.micra" depart="167.00">