<?xml version="1.0" encoding="UTF-8"?>

<!-- generated on 01/23/15 15:10:04 by SUMO netconvert Version dev-SVN-r17669
<?xml version="1.0" encoding="UTF-8"?>

<configuration xmlns:xsi="http://www.w3.org/2001/XMLSchema-instance" xsi:noNamespaceSchemaLocation="http://sumo.dlr.de/xsd/netconvertConfiguration.xsd">

    <input>
        <node-files value="bs3d\bsplain.nod.xml"/>
        <edge-files value="bs3d\bsplain.edg.xml"/>
        <connection-files value="bs3d\bsplain.con.xml"/>
        <tllogic-files value="bs3d\bsplain.tll.xml"/>
    </input>

    <output>
        <output-file value="bs3d\bs.net.xml"/>
    </output>

    <processing>
        <ignore-errors.edge-type value="true"/>
    </processing>

</configuration>
-->

<net version="0.13" xmlns:xsi="http://www.w3.org/2001/XMLSchema-instance" xsi:noNamespaceSchemaLocation="http://sumo.dlr.de/xsd/net_file.xsd">

    <location netOffset="-604099.60,-5792153.74" convBoundary="0.00,0.00,1593.78,2141.25" origBoundary="10.525796,52.269679,10.549189,52.288860" projParameter="+proj=utm +zone=32 +ellps=WGS84 +datum=WGS84 +units=m +no_defs"/>

    <edge id=":1192507866_0" function="internal">
        <lane id=":1192507866_0_0" index="0" allow="delivery" speed="5.56" length="0.30" shape="526.44,788.37 526.37,788.66"/>
    </edge>
    <edge id=":1192507866_1" function="internal">
        <lane id=":1192507866_1_0" index="0" allow="delivery" speed="5.56" length="2.41" shape="526.44,788.37 525.25,789.27 524.34,789.39"/>
    </edge>
    <edge id=":1192507866_4" function="internal">
        <lane id=":1192507866_4_0" index="0" speed="5.56" length="2.41" shape="524.34,789.39 523.70,788.73 523.32,787.29"/>
    </edge>
    <edge id=":1192507866_2" function="internal">
        <lane id=":1192507866_2_0" index="0" allow="delivery" speed="5.56" length="0.93" shape="523.10,788.19 523.32,787.29"/>
    </edge>
    <edge id=":1192507866_3" function="internal">
        <lane id=":1192507866_3_0" index="0" allow="delivery" speed="5.56" length="2.41" shape="523.10,788.19 524.10,787.08 524.97,786.79"/>
    </edge>
    <edge id=":1192507866_5" function="internal">
        <lane id=":1192507866_5_0" index="0" speed="5.56" length="2.41" shape="524.97,786.79 525.73,787.32 526.37,788.66"/>
    </edge>
    <edge id=":1356130726_0" function="internal">
        <lane id=":1356130726_0_0" index="0" allow="pedestrian" speed="8.33" length="4.82" shape="653.16,490.93 652.03,489.97 651.71,489.10 652.22,488.33 653.54,487.65"/>
    </edge>
    <edge id=":1356130728_0" function="internal">
        <lane id=":1356130728_0_0" index="0" speed="9.73" length="5.07" shape="590.18,617.39 590.34,618.79 590.88,619.83 591.81,620.49 593.12,620.78"/>
    </edge>
    <edge id=":1356130728_1" function="internal">
        <lane id=":1356130728_1_0" index="0" allow="delivery" speed="5.56" length="4.82" shape="590.18,617.39 589.33,618.61 588.49,619.00 587.68,618.57 586.88,617.31"/>
    </edge>
    <edge id=":1356130728_2" function="internal">
        <lane id=":1356130728_2_0" index="0" allow="delivery" speed="9.73" length="5.00" shape="583.71,620.34 585.07,620.18 586.05,619.62 586.65,618.66 586.88,617.31"/>
    </edge>
    <edge id=":1356130728_3" function="internal">
        <lane id=":1356130728_3_0" index="0" speed="13.89" length="9.35" shape="583.71,620.34 593.12,620.78"/>
        <lane id=":1356130728_3_1" index="1" speed="13.89" length="9.35" shape="583.63,623.64 592.89,624.07"/>
    </edge>
    <edge id=":1356130740_0" function="internal">
        <lane id=":1356130740_0_0" index="0" speed="8.33" length="9.52" shape="664.43,485.88 662.73,495.25"/>
    </edge>
    <edge id=":1356130740_1" function="internal">
        <lane id=":1356130740_1_0" index="0" allow="pedestrian" speed="8.33" length="7.97" shape="664.43,485.88 663.74,488.57 662.79,490.44 661.57,491.50 660.10,491.73"/>
    </edge>
    <edge id=":1356130740_2" function="internal">
        <lane id=":1356130740_2_0" index="0" speed="8.33" length="3.24" shape="660.46,488.45 661.89,489.02 662.74,490.34 662.76,490.46"/>
    </edge>
    <edge id=":1356130740_3" function="internal">
        <lane id=":1356130740_3_0" index="0" allow="pedestrian" speed="8.33" length="2.41" shape="660.46,488.45 661.60,489.41 661.92,490.27"/>
    </edge>
    <edge id=":1356130740_4" function="internal">
        <lane id=":1356130740_4_0" index="0" speed="8.33" length="4.82" shape="662.76,490.46 663.03,492.41 662.73,495.25"/>
    </edge>
    <edge id=":1356130740_5" function="internal">
        <lane id=":1356130740_5_0" index="0" speed="8.33" length="2.41" shape="661.92,490.27 661.42,491.05 660.10,491.73"/>
    </edge>
    <edge id=":1356130749_0" function="internal">
        <lane id=":1356130749_0_0" index="0" allow="delivery" speed="5.56" length="4.82" shape="590.66,579.41 591.55,578.21 592.39,577.84 593.20,578.30 593.96,579.57"/>
    </edge>
    <edge id=":1356130757_0" function="internal">
        <lane id=":1356130757_0_0" index="0" allow="pedestrian" speed="8.33" length="5.03" shape="545.95,571.88 545.72,570.52 545.11,569.56 544.11,569.02 542.74,568.89"/>
    </edge>
    <edge id=":1356130757_1" function="internal">
        <lane id=":1356130757_1_0" index="0" speed="8.33" length="9.52" shape="545.95,571.88 545.67,562.37"/>
    </edge>
    <edge id=":1356130757_2" function="internal">
        <lane id=":1356130757_2_0" index="0" speed="8.33" length="2.41" shape="545.95,571.88 546.74,570.62 547.56,570.19"/>
    </edge>
    <edge id=":1356130757_9" function="internal">
        <lane id=":1356130757_9_0" index="0" speed="8.33" length="2.41" shape="547.56,570.19 548.39,570.58 549.25,571.80"/>
    </edge>
    <edge id=":1356130757_3" function="internal">
        <lane id=":1356130757_3_0" index="0" speed="8.33" length="9.55" shape="548.97,562.25 549.25,571.80"/>
    </edge>
    <edge id=":1356130757_4" function="internal">
        <lane id=":1356130757_4_0" index="0" allow="pedestrian" speed="8.33" length="7.15" shape="548.97,562.25 548.66,565.05 547.52,567.08 545.84,568.17"/>
    </edge>
    <edge id=":1356130757_5" function="internal">
        <lane id=":1356130757_5_0" index="0" speed="8.33" length="2.41" shape="548.97,562.25 548.19,563.52 547.38,563.96"/>
    </edge>
    <edge id=":1356130757_10" function="internal">
        <lane id=":1356130757_10_0" index="0" speed="8.33" length="3.20" shape="545.84,568.17 545.55,568.36 542.74,568.89"/>
    </edge>
    <edge id=":1356130757_11" function="internal">
        <lane id=":1356130757_11_0" index="0" speed="8.33" length="2.41" shape="547.38,563.96 546.54,563.57 545.67,562.37"/>
    </edge>
    <edge id=":1356130757_6" function="internal">
        <lane id=":1356130757_6_0" index="0" speed="8.33" length="5.07" shape="542.59,565.59 543.98,565.34 544.95,564.71 545.52,563.72 545.67,562.37"/>
    </edge>
    <edge id=":1356130757_7" function="internal">
        <lane id=":1356130757_7_0" index="0" speed="8.33" length="10.43" shape="542.59,565.59 545.44,565.87 547.50,566.99 548.77,568.97 549.25,571.80"/>
    </edge>
    <edge id=":1356130757_8" function="internal">
        <lane id=":1356130757_8_0" index="0" allow="pedestrian" speed="8.33" length="4.82" shape="542.59,565.59 543.86,566.36 544.31,567.16 543.94,568.01 542.74,568.89"/>
    </edge>
    <edge id=":1356130762_0" function="internal">
        <lane id=":1356130762_0_0" index="0" allow="pedestrian" speed="8.33" length="4.82" shape="529.50,569.58 528.21,568.83 527.75,568.03 528.12,567.18 529.30,566.28"/>
    </edge>
    <edge id=":1356130767_0" function="internal">
        <lane id=":1356130767_0_0" index="0" allow="delivery" speed="5.56" length="4.82" shape="650.74,563.80 649.80,562.65 649.66,561.74 650.30,561.07 651.72,560.66"/>
    </edge>
    <edge id=":1356130769_0" function="internal">
        <lane id=":1356130769_0_0" index="0" speed="9.73" length="5.18" shape="684.28,570.85 685.73,571.10 686.91,570.88 687.82,570.17 688.46,568.97"/>
    </edge>
    <edge id=":1356130769_1" function="internal">
        <lane id=":1356130769_1_0" index="0" allow="delivery" speed="5.56" length="4.82" shape="684.28,570.85 685.21,572.01 685.36,572.92 684.72,573.58 683.29,574.00"/>
    </edge>
    <edge id=":1356130769_2" function="internal">
        <lane id=":1356130769_2_0" index="0" allow="delivery" speed="9.73" length="5.06" shape="685.23,577.93 685.52,576.57 685.29,575.46 684.55,574.60 683.29,574.00"/>
    </edge>
    <edge id=":1356130769_3" function="internal">
        <lane id=":1356130769_3_0" index="0" speed="13.89" length="9.54" shape="685.23,577.93 688.46,568.97"/>
        <lane id=":1356130769_3_1" index="1" speed="13.89" length="9.54" shape="688.33,579.07 691.57,570.07"/>
    </edge>
    <edge id=":1356135510_0" function="internal">
        <lane id=":1356135510_0_0" index="0" allow="delivery" speed="5.56" length="4.82" shape="482.30,787.44 483.33,786.37 484.21,786.11 484.95,786.66 485.54,788.02"/>
    </edge>
    <edge id=":1356135514_0" function="internal">
        <lane id=":1356135514_0_0" index="0" speed="8.33" length="9.50" shape="494.87,848.28 485.49,846.76"/>
    </edge>
    <edge id=":1356135514_1" function="internal">
        <lane id=":1356135514_1_0" index="0" allow="pedestrian" speed="8.33" length="7.15" shape="494.87,848.28 492.14,847.42 490.35,845.90 489.66,844.09"/>
    </edge>
    <edge id=":1356135514_2" function="internal">
        <lane id=":1356135514_2_0" index="0" speed="8.33" length="2.41" shape="494.87,848.28 493.78,847.27 493.51,846.39"/>
    </edge>
    <edge id=":1356135514_9" function="internal">
        <lane id=":1356135514_9_0" index="0" speed="8.33" length="3.28" shape="489.66,844.09 489.51,843.71 489.62,840.84"/>
    </edge>
    <edge id=":1356135514_10" function="internal">
        <lane id=":1356135514_10_0" index="0" speed="8.33" length="2.41" shape="493.51,846.39 494.05,845.64 495.40,845.02"/>
    </edge>
    <edge id=":1356135514_3" function="internal">
        <lane id=":1356135514_3_0" index="0" speed="8.33" length="5.02" shape="492.87,841.44 492.82,842.82 493.22,843.87 494.08,844.61 495.40,845.02"/>
    </edge>
    <edge id=":1356135514_4" function="internal">
        <lane id=":1356135514_4_0" index="0" speed="8.33" length="10.33" shape="492.87,841.44 491.97,844.14 490.45,845.93 488.29,846.81 485.49,846.76"/>
    </edge>
    <edge id=":1356135514_5" function="internal">
        <lane id=":1356135514_5_0" index="0" allow="pedestrian" speed="8.33" length="4.82" shape="492.87,841.44 491.84,842.51 490.95,842.76 490.21,842.21 489.62,840.84"/>
    </edge>
    <edge id=":1356135514_6" function="internal">
        <lane id=":1356135514_6_0" index="0" allow="pedestrian" speed="8.33" length="5.08" shape="486.02,843.50 487.38,843.52 488.43,843.08 489.18,842.19 489.62,840.84"/>
    </edge>
    <edge id=":1356135514_7" function="internal">
        <lane id=":1356135514_7_0" index="0" speed="8.33" length="9.50" shape="486.02,843.50 495.40,845.02"/>
    </edge>
    <edge id=":1356135514_8" function="internal">
        <lane id=":1356135514_8_0" index="0" speed="8.33" length="2.41" shape="486.02,843.50 487.11,844.52 487.39,845.40"/>
    </edge>
    <edge id=":1356135514_11" function="internal">
        <lane id=":1356135514_11_0" index="0" speed="8.33" length="2.41" shape="487.39,845.40 486.85,846.15 485.49,846.76"/>
    </edge>
    <edge id=":1356135515_0" function="internal">
        <lane id=":1356135515_0_0" index="0" allow="delivery" speed="5.56" length="9.50" shape="520.34,829.88 518.97,839.28"/>
    </edge>
    <edge id=":1356135515_1" function="internal">
        <lane id=":1356135515_1_0" index="0" allow="delivery" speed="5.56" length="10.32" shape="520.34,829.88 519.54,832.59 518.06,834.39 515.91,835.29 513.07,835.30"/>
    </edge>
    <edge id=":1356135515_2" function="internal">
        <lane id=":1356135515_2_0" index="0" allow="delivery" speed="5.56" length="4.82" shape="520.34,829.88 519.34,830.99 518.47,831.28 517.71,830.75 517.07,829.41"/>
    </edge>
    <edge id=":1356135515_3" function="internal">
        <lane id=":1356135515_3_0" index="0" allow="delivery" speed="5.56" length="5.02" shape="513.54,832.03 514.92,832.03 515.96,831.59 516.68,830.72 517.07,829.41"/>
    </edge>
    <edge id=":1356135515_4" function="internal">
        <lane id=":1356135515_4_0" index="0" allow="delivery" speed="5.56" length="10.34" shape="513.54,832.03 516.26,832.82 518.07,834.29 518.97,836.45 518.97,839.28"/>
    </edge>
    <edge id=":1356135515_5" function="internal">
        <lane id=":1356135515_5_0" index="0" allow="delivery" speed="5.56" length="4.82" shape="513.54,832.03 514.64,833.02 514.94,833.89 514.41,834.65 513.07,835.30"/>
    </edge>
    <edge id=":1356135515_6" function="internal">
        <lane id=":1356135515_6_0" index="0" allow="delivery" speed="5.56" length="5.00" shape="515.70,838.81 515.70,837.43 515.27,836.39 514.39,835.68 513.07,835.30"/>
    </edge>
    <edge id=":1356135515_7" function="internal">
        <lane id=":1356135515_7_0" index="0" allow="delivery" speed="5.56" length="9.50" shape="515.70,838.81 517.07,829.41"/>
    </edge>
    <edge id=":1356135515_8" function="internal">
        <lane id=":1356135515_8_0" index="0" allow="delivery" speed="5.56" length="4.82" shape="515.70,838.81 516.70,837.70 517.57,837.41 518.33,837.94 518.97,839.28"/>
    </edge>
    <edge id=":1356135516_0" function="internal">
        <lane id=":1356135516_0_0" index="0" allow="delivery" speed="5.56" length="9.51" shape="497.58,833.10 488.16,831.77"/>
    </edge>
    <edge id=":1356135516_1" function="internal">
        <lane id=":1356135516_1_0" index="0" allow="delivery" speed="5.56" length="4.82" shape="497.58,833.10 496.47,832.11 496.18,831.24 496.70,830.48 498.05,829.84"/>
    </edge>
    <edge id=":1356135516_2" function="internal">
        <lane id=":1356135516_2_0" index="0" allow="delivery" speed="5.56" length="9.51" shape="488.63,828.50 498.05,829.84"/>
    </edge>
    <edge id=":1356135516_3" function="internal">
        <lane id=":1356135516_3_0" index="0" allow="delivery" speed="5.56" length="4.82" shape="488.63,828.50 489.74,829.49 490.03,830.37 489.51,831.13 488.16,831.77"/>
    </edge>
    <edge id=":1356135516_4" function="internal">
        <lane id=":1356135516_4_0" index="0" allow="pedestrian" speed="8.33" length="4.82" shape="490.69,835.35 491.75,834.31 492.64,834.07 493.37,834.64 493.93,836.01"/>
    </edge>
    <edge id=":1367507446_0" function="internal">
        <lane id=":1367507446_0_0" index="0" allow="delivery" speed="5.56" length="4.82" shape="588.24,674.12 589.51,674.90 589.95,675.71 589.57,676.55 588.36,677.42"/>
    </edge>
    <edge id=":1367507447_0" function="internal">
        <lane id=":1367507447_0_0" index="0" speed="8.33" length="9.50" shape="549.23,682.02 548.85,672.52"/>
    </edge>
    <edge id=":1367507447_1" function="internal">
        <lane id=":1367507447_1_0" index="0" allow="delivery" speed="6.95" length="7.14" shape="549.23,682.02 549.52,679.20 550.64,677.15 552.30,676.07"/>
    </edge>
    <edge id=":1367507447_2" function="internal">
        <lane id=":1367507447_2_0" index="0" speed="8.33" length="2.41" shape="549.23,682.02 550.00,680.75 550.81,680.30"/>
    </edge>
    <edge id=":1367507447_9" function="internal">
        <lane id=":1367507447_9_0" index="0" speed="6.95" length="3.19" shape="552.30,676.07 552.59,675.88 555.38,675.37"/>
    </edge>
    <edge id=":1367507447_10" function="internal">
        <lane id=":1367507447_10_0" index="0" speed="8.33" length="2.41" shape="550.81,680.30 551.65,680.68 552.53,681.89"/>
    </edge>
    <edge id=":1367507447_3" function="internal">
        <lane id=":1367507447_3_0" index="0" speed="6.95" length="5.00" shape="555.50,678.67 554.16,678.91 553.21,679.53 552.67,680.52 552.53,681.89"/>
    </edge>
    <edge id=":1367507447_4" function="internal">
        <lane id=":1367507447_4_0" index="0" speed="6.95" length="10.32" shape="555.50,678.67 552.69,678.38 550.64,677.25 549.36,675.30 548.85,672.52"/>
    </edge>
    <edge id=":1367507447_5" function="internal">
        <lane id=":1367507447_5_0" index="0" allow="delivery" speed="5.56" length="4.82" shape="555.50,678.67 554.24,677.89 553.79,677.08 554.17,676.24 555.38,675.37"/>
    </edge>
    <edge id=":1367507447_6" function="internal">
        <lane id=":1367507447_6_0" index="0" allow="delivery" speed="6.95" length="5.01" shape="552.15,672.39 552.40,673.74 553.02,674.69 554.01,675.23 555.38,675.37"/>
    </edge>
    <edge id=":1367507447_7" function="internal">
        <lane id=":1367507447_7_0" index="0" speed="8.33" length="9.50" shape="552.15,672.39 552.53,681.89"/>
    </edge>
    <edge id=":1367507447_8" function="internal">
        <lane id=":1367507447_8_0" index="0" speed="8.33" length="2.41" shape="552.15,672.39 551.38,673.66 550.57,674.11"/>
    </edge>
    <edge id=":1367507447_11" function="internal">
        <lane id=":1367507447_11_0" index="0" speed="8.33" length="2.41" shape="550.57,674.11 549.73,673.73 548.85,672.52"/>
    </edge>
    <edge id=":1424270250_0" function="internal">
        <lane id=":1424270250_0_0" index="0" speed="13.89" length="9.61" shape="797.46,928.63 794.35,937.72"/>
    </edge>
    <edge id=":1424270250_1" function="internal">
        <lane id=":1424270250_1_0" index="0" allow="pedestrian" speed="11.11" length="7.16" shape="797.46,928.63 796.21,931.12 794.43,932.63 792.45,933.08"/>
    </edge>
    <edge id=":1424270250_2" function="internal">
        <lane id=":1424270250_2_0" index="0" speed="13.89" length="2.41" shape="797.46,928.63 796.29,929.54 795.38,929.68"/>
    </edge>
    <edge id=":1424270250_9" function="internal">
        <lane id=":1424270250_9_0" index="0" speed="11.11" length="3.23" shape="792.45,933.08 792.11,933.16 789.26,932.70"/>
    </edge>
    <edge id=":1424270250_10" function="internal">
        <lane id=":1424270250_10_0" index="0" speed="13.89" length="2.41" shape="795.38,929.68 794.73,929.03 794.33,927.59"/>
    </edge>
    <edge id=":1424270250_3" function="internal">
        <lane id=":1424270250_3_0" index="0" speed="11.11" length="5.15" shape="790.23,929.54 791.66,929.78 792.82,929.53 793.71,928.80 794.33,927.59"/>
    </edge>
    <edge id=":1424270250_4" function="internal">
        <lane id=":1424270250_4_0" index="0" speed="11.11" length="10.55" shape="790.23,929.54 792.86,930.78 794.43,932.55 794.92,934.87 794.35,937.72"/>
    </edge>
    <edge id=":1424270250_5" function="internal">
        <lane id=":1424270250_5_0" index="0" allow="pedestrian" speed="8.33" length="4.82" shape="790.23,929.54 791.17,930.69 791.32,931.60 790.69,932.27 789.26,932.70"/>
    </edge>
    <edge id=":1424270250_6" function="internal">
        <lane id=":1424270250_6_0" index="0" allow="pedestrian" speed="11.11" length="5.05" shape="791.24,936.61 791.51,935.25 791.28,934.14 790.53,933.29 789.26,932.70"/>
    </edge>
    <edge id=":1424270250_7" function="internal">
        <lane id=":1424270250_7_0" index="0" speed="13.89" length="9.54" shape="791.24,936.61 794.33,927.59"/>
    </edge>
    <edge id=":1424270250_8" function="internal">
        <lane id=":1424270250_8_0" index="0" speed="13.89" length="2.41" shape="791.24,936.61 792.43,935.72 793.35,935.61"/>
    </edge>
    <edge id=":1424270250_11" function="internal">
        <lane id=":1424270250_11_0" index="0" speed="13.89" length="2.41" shape="793.35,935.61 793.99,936.27 794.35,937.72"/>
    </edge>
    <edge id=":1424270251_0" function="internal">
        <lane id=":1424270251_0_0" index="0" allow="delivery" speed="5.56" length="5.18" shape="728.35,920.75 725.04,916.76"/>
    </edge>
    <edge id=":1424270251_1" function="internal">
        <lane id=":1424270251_1_0" index="0" allow="delivery" speed="5.56" length="4.82" shape="728.35,920.75 728.33,919.26 728.78,918.46 729.70,918.34 731.08,918.89"/>
    </edge>
    <edge id=":1424270251_2" function="internal">
        <lane id=":1424270251_2_0" index="0" allow="pedestrian" speed="8.33" length="4.82" shape="733.46,915.66 732.51,914.51 732.36,913.60 732.99,912.93 734.42,912.51"/>
    </edge>
    <edge id=":1424270251_3" function="internal">
        <lane id=":1424270251_3_0" index="0" allow="delivery" speed="5.56" length="4.91" shape="727.92,915.14 731.08,918.89"/>
    </edge>
    <edge id=":1424270251_4" function="internal">
        <lane id=":1424270251_4_0" index="0" allow="delivery" speed="5.56" length="4.82" shape="727.92,915.14 727.81,916.62 727.29,917.39 726.37,917.43 725.04,916.76"/>
    </edge>
    <edge id=":1424274807_0" function="internal">
        <lane id=":1424274807_0_0" index="0" speed="9.73" length="3.16" shape="847.95,785.85 845.11,784.45"/>
    </edge>
    <edge id=":1424274807_1" function="internal">
        <lane id=":1424274807_1_0" index="0" speed="9.73" length="10.32" shape="847.95,785.85 845.41,784.55 843.88,782.77 843.34,780.50 843.81,777.75"/>
    </edge>
    <edge id=":1424274807_2" function="internal">
        <lane id=":1424274807_2_0" index="0" allow="delivery" speed="5.56" length="4.82" shape="847.95,785.85 847.05,784.66 846.93,783.75 847.59,783.10 849.03,782.73"/>
    </edge>
    <edge id=":1424274807_3" function="internal">
        <lane id=":1424274807_3_0" index="0" allow="delivery" speed="9.73" length="5.08" shape="846.95,778.76 846.73,780.10 847.00,781.21 847.77,782.09 849.03,782.73"/>
    </edge>
    <edge id=":1424274807_4" function="internal">
        <lane id=":1424274807_4_0" index="0" speed="13.89" length="5.98" shape="846.95,778.76 845.11,784.45"/>
    </edge>
    <edge id=":1424274807_5" function="internal">
        <lane id=":1424274807_5_0" index="0" speed="13.89" length="2.41" shape="846.95,778.76 845.78,779.69 844.87,779.82"/>
    </edge>
    <edge id=":1424274807_9" function="internal">
        <lane id=":1424274807_9_0" index="0" speed="13.89" length="2.41" shape="844.87,779.82 844.21,779.18 843.81,777.75"/>
    </edge>
    <edge id=":1424274807_6" function="internal">
        <lane id=":1424274807_6_0" index="0" speed="13.89" length="9.30" shape="840.95,786.59 843.81,777.75"/>
    </edge>
    <edge id=":1424274807_7" function="internal">
        <lane id=":1424274807_7_0" index="0" allow="delivery" speed="9.73" length="6.99" shape="840.95,786.59 842.18,784.10 843.94,782.63 845.82,782.25"/>
    </edge>
    <edge id=":1424274807_8" function="internal">
        <lane id=":1424274807_8_0" index="0" speed="13.89" length="3.42" shape="840.95,786.59 841.18,784.49 841.96,783.44"/>
    </edge>
    <edge id=":1424274807_10" function="internal">
        <lane id=":1424274807_10_0" index="0" speed="9.73" length="3.27" shape="845.82,782.25 846.22,782.17 849.03,782.73"/>
    </edge>
    <edge id=":1424274807_11" function="internal">
        <lane id=":1424274807_11_0" index="0" speed="13.89" length="3.42" shape="841.96,783.44 843.27,783.42 845.11,784.45"/>
    </edge>
    <edge id=":1424274808_0" function="internal">
        <lane id=":1424274808_0_0" index="0" allow="delivery" speed="5.56" length="4.82" shape="889.30,768.27 890.46,767.34 891.37,767.20 892.03,767.84 892.44,769.27"/>
    </edge>
    <edge id=":1476473555_0" function="internal">
        <lane id=":1476473555_0_0" index="0" allow="delivery" speed="5.56" length="4.82" shape="598.32,826.90 599.54,827.75 599.93,828.59 599.50,829.40 598.24,830.20"/>
    </edge>
    <edge id=":1476473559_0" function="internal">
        <lane id=":1476473559_0_0" index="0" speed="8.33" length="9.11" shape="567.93,816.99 564.88,808.41"/>
    </edge>
    <edge id=":1476473559_1" function="internal">
        <lane id=":1476473559_1_0" index="0" allow="delivery" speed="6.95" length="7.70" shape="567.93,816.99 567.14,813.40 567.83,810.87 569.00,810.09"/>
    </edge>
    <edge id=":1476473559_2" function="internal">
        <lane id=":1476473559_2_0" index="0" speed="8.33" length="2.41" shape="567.93,816.99 568.27,815.54 568.90,814.87"/>
    </edge>
    <edge id=":1476473559_9" function="internal">
        <lane id=":1476473559_9_0" index="0" speed="6.95" length="4.88" shape="569.00,810.09 570.01,809.42 573.66,809.03"/>
    </edge>
    <edge id=":1476473559_10" function="internal">
        <lane id=":1476473559_10_0" index="0" speed="8.33" length="2.41" shape="568.90,814.87 569.82,814.97 571.03,815.84"/>
    </edge>
    <edge id=":1476473559_3" function="internal">
        <lane id=":1476473559_3_0" index="0" speed="6.95" length="5.56" shape="573.55,812.33 571.94,812.50 570.98,813.14 570.68,814.25 571.03,815.84"/>
    </edge>
    <edge id=":1476473559_4" function="internal">
        <lane id=":1476473559_4_0" index="0" speed="6.95" length="10.08" shape="573.55,812.33 570.20,811.99 567.63,811.22 565.86,810.03 564.88,808.41"/>
    </edge>
    <edge id=":1476473559_5" function="internal">
        <lane id=":1476473559_5_0" index="0" allow="delivery" speed="5.56" length="4.82" shape="573.55,812.33 572.34,811.46 571.96,810.62 572.40,809.81 573.66,809.03"/>
    </edge>
    <edge id=":1476473559_6" function="internal">
        <lane id=":1476473559_6_0" index="0" allow="delivery" speed="6.95" length="6.77" shape="567.75,806.54 568.40,807.57 569.60,808.32 571.35,808.81 573.66,809.03"/>
    </edge>
    <edge id=":1476473559_7" function="internal">
        <lane id=":1476473559_7_0" index="0" speed="8.33" length="9.86" shape="567.75,806.54 571.03,815.84"/>
    </edge>
    <edge id=":1476473559_8" function="internal">
        <lane id=":1476473559_8_0" index="0" speed="8.33" length="2.50" shape="567.75,806.54 567.74,808.08 567.25,808.91"/>
    </edge>
    <edge id=":1476473559_11" function="internal">
        <lane id=":1476473559_11_0" index="0" speed="8.33" length="2.50" shape="567.25,808.91 566.30,809.02 564.88,808.41"/>
    </edge>
    <edge id=":1476473561_0" function="internal">
        <lane id=":1476473561_0_0" index="0" allow="delivery" speed="5.56" length="4.82" shape="599.17,809.86 600.38,810.73 600.77,811.56 600.33,812.37 599.07,813.16"/>
    </edge>
    <edge id=":1476473564_0" function="internal">
        <lane id=":1476473564_0_0" index="0" speed="8.33" length="9.94" shape="574.36,834.45 570.95,825.12"/>
    </edge>
    <edge id=":1476473564_1" function="internal">
        <lane id=":1476473564_1_0" index="0" allow="delivery" speed="6.95" length="7.53" shape="574.36,834.45 573.62,830.90 574.32,828.40 575.40,827.66"/>
    </edge>
    <edge id=":1476473564_2" function="internal">
        <lane id=":1476473564_2_0" index="0" speed="8.33" length="2.41" shape="574.36,834.45 574.72,833.01 575.35,832.34"/>
    </edge>
    <edge id=":1476473564_9" function="internal">
        <lane id=":1476473564_9_0" index="0" speed="6.95" length="4.92" shape="575.40,827.66 576.47,826.93 580.07,826.51"/>
    </edge>
    <edge id=":1476473564_10" function="internal">
        <lane id=":1476473564_10_0" index="0" speed="8.33" length="2.41" shape="575.35,832.34 576.27,832.44 577.47,833.33"/>
    </edge>
    <edge id=":1476473564_3" function="internal">
        <lane id=":1476473564_3_0" index="0" speed="6.95" length="5.52" shape="580.00,829.80 578.40,829.99 577.45,830.64 577.14,831.75 577.47,833.33"/>
    </edge>
    <edge id=":1476473564_4" function="internal">
        <lane id=":1476473564_4_0" index="0" speed="6.95" length="10.82" shape="580.00,829.80 576.67,829.45 574.05,828.55 572.15,827.11 570.95,825.12"/>
    </edge>
    <edge id=":1476473564_5" function="internal">
        <lane id=":1476473564_5_0" index="0" allow="delivery" speed="5.56" length="4.82" shape="580.00,829.80 578.78,828.95 578.38,828.12 578.81,827.30 580.07,826.51"/>
    </edge>
    <edge id=":1476473564_6" function="internal">
        <lane id=":1476473564_6_0" index="0" allow="delivery" speed="6.95" length="6.89" shape="574.05,823.97 574.76,825.04 576.00,825.82 577.77,826.31 580.07,826.51"/>
    </edge>
    <edge id=":1476473564_7" function="internal">
        <lane id=":1476473564_7_0" index="0" speed="8.33" length="9.96" shape="574.05,823.97 577.47,833.33"/>
    </edge>
    <edge id=":1476473564_8" function="internal">
        <lane id=":1476473564_8_0" index="0" speed="8.33" length="2.41" shape="574.05,823.97 573.70,825.42 573.07,826.09"/>
    </edge>
    <edge id=":1476473564_11" function="internal">
        <lane id=":1476473564_11_0" index="0" speed="8.33" length="2.41" shape="573.07,826.09 572.16,825.99 570.95,825.12"/>
    </edge>
    <edge id=":1497216949_0" function="internal">
        <lane id=":1497216949_0_0" index="0" allow="delivery" speed="5.56" length="4.82" shape="1018.56,459.71 1019.22,461.04 1019.17,461.96 1018.40,462.47 1016.92,462.57"/>
    </edge>
    <edge id=":1497216952_0" function="internal">
        <lane id=":1497216952_0_0" index="0" allow="delivery" speed="5.56" length="4.82" shape="1010.86,483.82 1011.49,485.17 1011.41,486.09 1010.63,486.58 1009.14,486.64"/>
    </edge>
    <edge id=":1713349266_0" function="internal">
        <lane id=":1713349266_0_0" index="0" allow="rail_urban" speed="27.78" length="0.10" shape="762.12,329.76 762.12,329.76"/>
        <lane id=":1713349266_0_1" index="1" allow="rail_urban" speed="27.78" length="0.10" shape="760.18,332.44 760.18,332.44"/>
    </edge>
    <edge id=":1757034233_0" function="internal">
        <lane id=":1757034233_0_0" index="0" speed="22.22" length="4.82" shape="576.69,1047.40 576.56,1048.88 576.03,1049.64 575.11,1049.67 573.79,1048.98"/>
    </edge>
    <edge id=":1771199559_0" function="internal">
        <lane id=":1771199559_0_0" index="0" speed="13.89" length="9.40" shape="940.41,475.07 933.21,469.03"/>
    </edge>
    <edge id=":1771199559_1" function="internal">
        <lane id=":1771199559_1_0" index="0" speed="11.11" length="10.33" shape="940.41,475.07 938.78,473.10 938.10,470.89 938.38,468.42 939.61,465.71"/>
    </edge>
    <edge id=":1771199559_2" function="internal">
        <lane id=":1771199559_2_0" index="0" allow="rail_urban" speed="20.84" length="3.30" shape="940.41,475.07 942.58,472.59"/>
    </edge>
    <edge id=":1771199559_3" function="internal">