<?xml version="1.0" encoding="UTF-8"?>

<!-- generated on 05/06/14 11:07:23 by SUMO netconvert Version dev-SVN-r16258
<?xml version="1.0" encoding="UTF-8"?>

<configuration xmlns:xsi="http://www.w3.org/2001/XMLSchema-instance" xsi:noNamespaceSchemaLocation="https://sumo-sim.org/xsd/netconvertConfiguration.xsd">

    <input>
        <sumo-net-file value="bs.net.xml"/>
    </input>

    <output>
        <plain-output-prefix value="bsplain"/>
    </output>

    <processing>
        <no-turnarounds value="true"/>
        <offset.disable-normalization value="true"/>
    </processing>

</configuration>
-->

<edges version="0.13" xmlns:xsi="http://www.w3.org/2001/XMLSchema-instance" xsi:noNamespaceSchemaLocation="https://sumo-sim.org/xsd/edges_file.xsd">
    <edge id="-103268088#0" from="1356135515" to="1192507866" type="highway.service" numLanes="1" speed="5.56">
        <lane index="0" allow="delivery"/>
    </edge>
    <edge id="-103268088#1" from="260700546" to="1356135515" type="highway.service" numLanes="1" speed="5.56">
        <lane index="0" allow="delivery"/>
    </edge>
    <edge id="-108892340#0" from="564631546" to="53251264" type="highway.tertiary" numLanes="1" speed="13.89"/>
    <edge id="-108892340#1" from="26155586" to="564631546" type="highway.tertiary" numLanes="1" speed="13.89" shape="619.35,917.75 621.82,929.64 635.56,964.03"/>
    <edge id="-121068757" from="1356130762" to="1356130757" type="highway.footway" numLanes="1" speed="8.33" shape="529.40,567.93 536.29,567.53 547.48,567.02">
        <lane index="0" allow="pedestrian"/>
    </edge>
    <edge id="-121068763" from="1356130769" to="1356130767" type="highway.service" numLanes="1" speed="5.56">
        <lane index="0" allow="delivery"/>
    </edge>
    <edge id="-121068764" from="1356130749" to="1356130728" type="highway.service" numLanes="1" speed="5.56" shape="592.31,579.49 592.00,585.50 589.16,590.01 588.42,622.10">
        <lane index="0" allow="delivery"/>
    </edge>
    <edge id="-121068765" from="1356130726" to="1356130740" type="highway.footway" numLanes="1" speed="8.33" shape="653.35,489.29 659.51,490.01 663.60,490.45">
        <lane index="0" allow="pedestrian"/>
    </edge>
    <edge id="-121069898#0" from="1356135516" to="1356135515" type="highway.service" numLanes="1" speed="5.56">
        <lane index="0" allow="delivery"/>
    </edge>
    <edge id="-121069898#1" from="1356135510" to="1356135516" type="highway.service" numLanes="1" speed="5.56" shape="483.92,787.73 476.65,828.48 493.30,830.83">
        <lane index="0" allow="delivery"/>
    </edge>
    <edge id="-121069900" from="1356135516" to="1356135514" type="highway.footway" numLanes="1" speed="8.33" shape="493.30,830.83 491.66,838.88 490.38,845.88">
        <lane index="0" allow="pedestrian"/>
    </edge>
    <edge id="-122351619" from="1367507446" to="1367507447" type="highway.service" numLanes="1" speed="5.56">
        <lane index="0" allow="delivery"/>
    </edge>
    <edge id="-129013950" from="1424270250" to="1424270251" type="highway.footway" numLanes="1" speed="8.33">
        <lane index="0" allow="pedestrian"/>
    </edge>
    <edge id="-129014453" from="1424274808" to="1424274807" type="highway.service" numLanes="1" speed="5.56" shape="890.87,768.77 882.24,795.98 843.94,782.71">
        <lane index="0" allow="delivery"/>
    </edge>
    <edge id="-134220300" from="1476473561" to="1476473559" type="highway.service" numLanes="1" speed="5.56">
        <lane index="0" allow="delivery"/>
    </edge>
    <edge id="-134220302" from="1476473555" to="1476473564" type="highway.service" numLanes="1" speed="5.56">
        <lane index="0" allow="delivery"/>
    </edge>
    <edge id="-136492644" from="1497216949" to="1497216952" type="highway.service" numLanes="1" speed="5.56" shape="1017.74,461.14 1001.08,451.59 989.84,472.98 1010.00,485.23">
        <lane index="0" allow="delivery"/>
    </edge>
    <edge id="-159243113" from="63357043" to="34814866" type="highway.residential" numLanes="1" speed="8.33" shape="1137.58,0.00 1086.65,129.82 1061.04,197.70 1034.20,264.19 1002.99,329.05 979.73,400.06"/>
    <edge id="-165574143" from="34814866" to="1771199559" type="highway.residential" numLanes="1" speed="8.33" shape="979.73,400.06 973.52,412.66 938.32,471.05"/>
    <edge id="-177688392" from="979119480" to="260700116" type="highway.footway" numLanes="1" speed="8.33" shape="634.36,360.44 632.59,367.86 637.38,371.69">
        <lane index="0" allow="pedestrian"/>
    </edge>
    <edge id="-177688397" from="260700116" to="1881108785" type="highway.footway" numLanes="1" speed="8.33" shape="637.38,371.69 641.87,370.80 642.84,367.89 643.30,363.34 643.97,357.69 644.61,353.32 646.16,349.52 648.89,348.19 653.34,347.66 660.36,344.53 671.96,341.67">
        <lane index="0" allow="pedestrian"/>
    </edge>
    <edge id="-179093197" from="1894312954" to="363611097" type="highway.footway" numLanes="1" speed="8.33" shape="360.79,511.65 319.89,513.25 316.13,515.82">
        <lane index="0" allow="pedestrian"/>
    </edge>
    <edge id="-206498911#0" from="247378385" to="34677652" type="highway.residential" numLanes="1" speed="8.33"/>
    <edge id="-206498911#1" from="260700546" to="247378385" type="highway.residential" numLanes="1" speed="8.33"/>
    <edge id="-206498911#2" from="1356135514" to="260700546" type="highway.residential" numLanes="1" speed="8.33"/>
    <edge id="-206498911#3" from="26153898" to="1356135514" type="highway.residential" numLanes="1" speed="8.33" shape="170.34,794.19 173.56,794.71 490.38,845.88"/>
    <edge id="-22959383" from="247378385" to="1757034233" type="highway.unclassified" numLanes="1" speed="22.22" shape="561.16,857.20 567.39,929.99 567.35,990.31 565.62,1030.67 575.24,1048.19"/>
    <edge id="-24038475#0" from="260700116" to="34677711" type="highway.footway" numLanes="1" speed="8.33" shape="637.38,371.69 587.12,356.45 581.59,354.78 565.93,346.79 563.39,345.47 542.04,347.09 532.52,343.17">
        <lane index="0" allow="pedestrian"/>
    </edge>
    <edge id="-24038475#1" from="277310879" to="260700116" type="highway.footway" numLanes="1" speed="8.33">
        <lane index="0" allow="pedestrian"/>
    </edge>
    <edge id="-24038475#2" from="278878848" to="277310879" type="highway.footway" numLanes="1" speed="8.33">
        <lane index="0" allow="pedestrian"/>
    </edge>
    <edge id="-24038534#0" from="260700545" to="34677659" type="highway.service" numLanes="1" speed="5.56">
        <lane index="0" allow="delivery"/>
    </edge>
    <edge id="-24038534#1" from="271359580" to="260700545" type="highway.service" numLanes="1" speed="5.56" shape="421.04,634.48 423.47,683.13 440.06,701.59 467.55,703.92 467.62,728.47 482.24,729.37 482.51,768.66 527.28,780.93">
        <lane index="0" allow="delivery"/>
    </edge>
    <edge id="-24396404" from="264778811" to="264778809" type="highway.service" numLanes="1" speed="5.56" shape="585.79,519.86 588.61,472.85 542.63,471.45">
        <lane index="0" allow="delivery"/>
    </edge>
    <edge id="-25068137" from="269964106" to="269964108" type="highway.residential" numLanes="1" speed="8.33" shape="787.33,952.59 783.77,964.37 767.81,1011.46 755.69,1050.44 741.94,1086.85"/>
    <edge id="-25068700" from="445100348" to="247378375" type="highway.unclassified" numLanes="1" speed="8.33" shape="308.81,969.86 309.39,967.52 356.14,970.13 371.60,971.83 382.68,974.47 392.67,976.95 400.93,980.23 418.09,988.27 465.32,1014.37 492.03,1029.94 512.32,1041.88 521.34,1047.86 543.89,1067.37 550.29,1080.00 550.29,1085.68"/>
    <edge id="-25363135#0" from="276419026" to="35651461" type="highway.residential" numLanes="1" speed="8.33"/>
    <edge id="-25363135#1" from="1356130757" to="276419026" type="highway.residential" numLanes="1" speed="8.33"/>
    <edge id="-25363135#2" from="cluster_26153656_34673725" to="1356130757" type="highway.residential" numLanes="1" speed="8.33" shape="548.79,621.17 547.48,567.02"/>
    <edge id="-25363167" from="467106195" to="cluster_270703615_622360014" type="highway.footway" numLanes="1" speed="8.33" shape="430.82,461.27 415.49,461.38 382.26,461.50">
        <lane index="0" allow="pedestrian"/>
    </edge>
    <edge id="-25446022" from="277310886" to="277310879" type="highway.footway" numLanes="1" speed="8.33">
        <lane index="0" allow="pedestrian"/>
    </edge>
    <edge id="-25485133#0" from="277697625" to="277697623" type="highway.service" numLanes="1" speed="5.56" shape="339.00,452.73 343.53,450.48 347.85,450.38 352.25,452.22">
        <lane index="0" allow="delivery"/>
    </edge>
    <edge id="-25485133#1" from="277697630" to="277697625" type="highway.service" numLanes="1" speed="5.56" shape="355.65,465.81 352.29,469.77 346.86,471.77 341.07,470.64 337.05,467.17 335.16,461.82 335.87,457.07 339.00,452.73">
        <lane index="0" allow="delivery"/>
    </edge>
    <edge id="-25485133#2" from="277697623" to="277697630" type="highway.service" numLanes="1" speed="5.56" shape="352.25,452.22 355.27,455.51 356.75,460.26 355.65,465.81">
        <lane index="0" allow="delivery"/>
    </edge>
    <edge id="-25952467" from="296924344" to="1835408176" type="highway.footway" numLanes="1" speed="8.33" shape="624.56,763.06 604.45,783.79 590.81,801.77 564.69,802.34">
        <lane index="0" allow="pedestrian"/>
    </edge>
    <edge id="-26384237#0" from="289047549" to="289047459" type="highway.service" numLanes="1" speed="5.56">
        <lane index="0" allow="delivery"/>
    </edge>
    <edge id="-26384237#1" from="806390749" to="289047549" type="highway.service" numLanes="1" speed="5.56" shape="302.24,595.78 330.35,595.44 329.21,561.03 309.28,561.39 282.86,561.87 283.62,596.00">
        <lane index="0" allow="delivery"/>
    </edge>
    <edge id="-26384237#2" from="289047549" to="806390749" type="highway.service" numLanes="1" speed="5.56">
        <lane index="0" allow="delivery"/>
    </edge>
    <edge id="-26384275#0" from="1894312954" to="289047648" type="highway.service" numLanes="1" speed="5.56">
        <lane index="0" allow="delivery"/>
    </edge>
    <edge id="-26384275#1" from="853135516" to="1894312954" type="highway.service" numLanes="1" speed="5.56" shape="364.29,531.80 364.11,526.39 360.79,511.65">
        <lane index="0" allow="delivery"/>
    </edge>
    <edge id="-26384275#2" from="289047670" to="853135516" type="highway.service" numLanes="1" speed="5.56" shape="365.22,564.88 364.99,556.97 364.29,531.80">
        <lane index="0" allow="delivery"/>
    </edge>
    <edge id="-26384298" from="1192507866" to="260700545" type="highway.service" numLanes="1" speed="5.56">
        <lane index="0" allow="delivery"/>
    </edge>
    <edge id="-26562389#0" from="440765481" to="26189950" type="highway.service" numLanes="1" speed="5.56">
        <lane index="0" allow="delivery"/>
    </edge>
    <edge id="-26562389#1" from="1424270251" to="440765481" type="highway.service" numLanes="1" speed="5.56">
        <lane index="0" allow="delivery"/>
    </edge>
    <edge id="-26562389#2" from="291185195" to="1424270251" type="highway.service" numLanes="1" speed="5.56">
        <lane index="0" allow="delivery"/>
    </edge>
    <edge id="-26562389#3" from="291185192" to="291185195" type="highway.service" numLanes="1" speed="5.56" shape="715.20,840.44 704.92,870.15 705.04,875.78 718.90,902.47">
        <lane index="0" allow="delivery"/>
    </edge>
    <edge id="-26562389#4" from="291185409" to="291185192" type="highway.service" numLanes="1" speed="5.56" shape="779.76,777.29 732.21,760.46 724.64,762.24 714.46,795.70 717.21,832.89 715.20,840.44">
        <lane index="0" allow="delivery"/>
    </edge>
    <edge id="-26562389#5" from="291185143" to="291185409" type="highway.service" numLanes="1" speed="5.56">
        <lane index="0" allow="delivery"/>
    </edge>
    <edge id="-26562391#0" from="291185194" to="291185195" type="highway.service" numLanes="1" speed="5.56" shape="736.88,848.59 733.06,858.89 727.48,874.84 718.90,902.47">
        <lane index="0" allow="delivery"/>
    </edge>
    <edge id="-26562391#1" from="291185148" to="291185194" type="highway.service" numLanes="1" speed="5.56">
        <lane index="0" allow="delivery"/>
    </edge>
    <edge id="-26562396" from="291185194" to="291185192" type="highway.service" numLanes="1" speed="5.56" shape="736.88,848.59 723.46,843.21 715.20,840.44">
        <lane index="0" allow="delivery"/>
    </edge>
    <edge id="-26562404#0" from="442839527" to="291185409" type="highway.service" numLanes="1" speed="5.56" shape="819.83,753.25 801.58,746.65 786.83,755.73 779.76,777.29">
        <lane index="0" allow="delivery"/>
    </edge>
    <edge id="-26562404#1" from="442839529" to="442839527" type="highway.service" numLanes="1" speed="5.56">
        <lane index="0" allow="delivery"/>
    </edge>
    <edge id="-26562404#2" from="291185412" to="442839529" type="highway.service" numLanes="1" speed="5.56">
        <lane index="0" allow="delivery"/>
    </edge>
    <edge id="-26775981#0" from="293696006" to="293695864" type="highway.service" numLanes="1" speed="5.56">
        <lane index="0" allow="delivery"/>
    </edge>
    <edge id="-26775981#1" from="429587899" to="293696006" type="highway.service" numLanes="1" speed="5.56">
        <lane index="0" allow="delivery"/>
    </edge>
    <edge id="-26775981#2" from="293696234" to="429587899" type="highway.service" numLanes="1" speed="5.56">
        <lane index="0" allow="delivery"/>
    </edge>
    <edge id="-26775981#3" from="293695883" to="293696234" type="highway.service" numLanes="1" speed="5.56" shape="1006.24,846.84 1000.94,845.06 958.04,830.64">
        <lane index="0" allow="delivery"/>
    </edge>
    <edge id="-26775984" from="293696007" to="293696006" type="highway.service" numLanes="1" speed="5.56">
        <lane index="0" allow="delivery"/>
    </edge>
    <edge id="-26776014#0" from="293696352" to="293696234" type="highway.service" numLanes="1" speed="5.56">
        <lane index="0" allow="delivery"/>
    </edge>
    <edge id="-26776014#1" from="293696354" to="293696352" type="highway.service" numLanes="1" speed="5.56">
        <lane index="0" allow="delivery"/>
    </edge>
    <edge id="-26776014#2" from="293696356" to="293696354" type="highway.service" numLanes="1" speed="5.56" shape="942.65,938.60 956.74,943.37 967.01,916.80">
        <lane index="0" allow="delivery"/>
    </edge>
    <edge id="-26776014#3" from="429587898" to="293696356" type="highway.service" numLanes="1" speed="5.56">
        <lane index="0" allow="delivery"/>
    </edge>
    <edge id="-26776014#4" from="293696357" to="429587898" type="highway.service" numLanes="1" speed="5.56">
        <lane index="0" allow="delivery"/>
    </edge>
    <edge id="-26776026#0" from="293696558" to="293696530" type="highway.service" numLanes="1" speed="5.56">
        <lane index="0" allow="delivery"/>
    </edge>
    <edge id="-26776026#1" from="293696556" to="293696558" type="highway.service" numLanes="1" speed="5.56">
        <lane index="0" allow="delivery"/>
    </edge>
    <edge id="-26776032" from="293696602" to="293696558" type="highway.service" numLanes="1" speed="5.56" shape="858.43,883.43 831.67,874.68 826.88,889.10">
        <lane index="0" allow="delivery"/>
    </edge>
    <edge id="-27059094" from="296893556" to="634580664" type="highway.service" numLanes="1" speed="5.56" shape="376.55,508.14 380.05,520.73 518.77,517.67 520.03,503.65">
        <lane index="0" allow="delivery"/>
    </edge>
    <edge id="-27059110#0" from="467106195" to="270703391" type="highway.service" numLanes="1" speed="5.56" shape="430.82,461.27 432.56,501.95 432.88,505.94">
        <lane index="0" allow="delivery"/>
    </edge>
    <edge id="-27059110#1" from="270703437" to="467106195" type="highway.service" numLanes="1" speed="5.56" shape="445.91,505.75 445.46,501.65 442.92,456.18 430.94,456.72 430.82,461.27">
        <lane index="0" allow="delivery"/>
    </edge>
    <edge id="-30738461" from="cluster_339975567_43242046" to="339975562" type="highway.service" numLanes="1" speed="5.56" shape="929.88,526.13 960.43,542.99 952.47,559.18 963.11,566.48">
        <lane index="0" allow="delivery"/>
    </edge>
    <edge id="-31281702#0" from="293695883" to="348042902" type="highway.footway" numLanes="1" speed="8.33" shape="1006.24,846.84 1010.09,854.79 992.30,900.74">
        <lane index="0" allow="pedestrian"/>
    </edge>
    <edge id="-31281702#1" from="381910193" to="293695883" type="highway.footway" numLanes="1" speed="8.33" shape="1080.28,859.93 1040.14,846.66 1027.90,843.63 1013.20,846.09 1006.24,846.84">
        <lane index="0" allow="pedestrian"/>
    </edge>
    <edge id="-31288488" from="293696354" to="348042902" type="highway.service" numLanes="1" speed="5.56" shape="967.01,916.80 974.49,895.50 992.30,900.74">
        <lane index="0" allow="delivery"/>
    </edge>
    <edge id="-33049407#0" from="378917495" to="27557127" type="highway.tertiary" numLanes="1" speed="13.89"/>
    <edge id="-33049407#1" from="59824154" to="378917495" type="highway.tertiary" numLanes="1" speed="13.89"/>
    <edge id="-33049407#2" from="1771199559" to="59824154" type="highway.tertiary" numLanes="1" speed="13.89"/>
    <edge id="-33049407#3" from="269964113" to="1771199559" type="highway.tertiary" numLanes="1" speed="13.89"/>
    <edge id="-33049407#4" from="480440288" to="269964113" type="highway.tertiary" numLanes="1" speed="13.89"/>
    <edge id="-33049407#5" from="59824195" to="480440288" type="highway.tertiary" numLanes="1" speed="13.89"/>
    <edge id="-33049407#6" from="266777507" to="59824195" type="highway.tertiary" numLanes="1" speed="13.89"/>
    <edge id="-33049407#7" from="36745051" to="266777507" type="highway.tertiary" numLanes="1" speed="13.89"/>
    <edge id="-33070760#0" from="34677711" to="26154191" type="highway.residential" numLanes="1" speed="8.33" shape="532.52,343.17 531.99,331.89 530.06,300.00 526.51,244.92 526.52,229.65 527.97,214.20 531.02,204.38 535.46,195.39 541.44,187.75"/>
    <edge id="-33070760#1" from="43242031" to="34677711" type="highway.residential" numLanes="1" speed="8.33"/>
    <edge id="-33070760#2" from="264778809" to="43242031" type="highway.residential" numLanes="1" speed="8.33"/>
    <edge id="-33070760#3" from="35651461" to="264778809" type="highway.residential" numLanes="1" speed="8.33"/>
    <edge id="-36943288#0" from="667901703" to="429587898" type="highway.service" numLanes="1" speed="5.56">
        <lane index="0" allow="delivery"/>
    </edge>
    <edge id="-36943288#1" from="429587900" to="667901703" type="highway.service" numLanes="1" speed="5.56">
        <lane index="0" allow="delivery"/>
    </edge>
    <edge id="-36943289#0" from="429587902" to="429587901" type="highway.footway" numLanes="1" speed="8.33">
        <lane index="0" allow="pedestrian"/>
    </edge>
    <edge id="-36943289#1" from="436828486" to="429587902" type="highway.footway" numLanes="1" speed="8.33">
        <lane index="0" allow="pedestrian"/>
    </edge>
    <edge id="-36943289#2" from="429587903" to="436828486" type="highway.footway" numLanes="1" speed="8.33">
        <lane index="0" allow="pedestrian"/>
    </edge>
    <edge id="-36943289#3" from="293696556" to="429587903" type="highway.footway" numLanes="1" speed="8.33" shape="853.43,897.93 855.40,898.62 852.30,906.15">
        <lane index="0" allow="pedestrian"/>
    </edge>
    <edge id="-36943290" from="429587906" to="429587908" type="highway.footway" numLanes="1" speed="8.33">
        <lane index="0" allow="pedestrian"/>
    </edge>
    <edge id="-36943292#0" from="429587900" to="429587907" type="highway.service" numLanes="1" speed="5.56">
        <lane index="0" allow="delivery"/>
    </edge>
    <edge id="-36943292#1" from="429587908" to="429587900" type="highway.service" numLanes="1" speed="5.56">
        <lane index="0" allow="delivery"/>
    </edge>
    <edge id="-36943296#0" from="667901708" to="293696352" type="highway.service" numLanes="1" speed="5.56">
        <lane index="0" allow="delivery"/>
    </edge>
    <edge id="-36943296#1" from="429587921" to="667901708" type="highway.service" numLanes="1" speed="5.56">
        <lane index="0" allow="delivery"/>
    </edge>
    <edge id="-36943301" from="429587899" to="429587940" type="highway.service" numLanes="1" speed="5.56">
        <lane index="0" allow="delivery"/>
    </edge>
    <edge id="-37399604#0" from="436828505" to="436828502" type="highway.footway" numLanes="1" speed="8.33">
        <lane index="0" allow="pedestrian"/>
    </edge>
    <edge id="-37399604#1" from="437327480" to="436828505" type="highway.footway" numLanes="1" speed="8.33">
        <lane index="0" allow="pedestrian"/>
    </edge>
    <edge id="-37399604#2" from="436828507" to="437327480" type="highway.footway" numLanes="1" speed="8.33">
        <lane index="0" allow="pedestrian"/>
    </edge>
    <edge id="-37399605" from="436828507" to="436828486" type="highway.steps" numLanes="1" speed="1.39">
        <lane index="0" allow="pedestrian"/>
    </edge>
    <edge id="-37399606" from="436828505" to="429587903" type="highway.footway" numLanes="1" speed="8.33" shape="823.22,901.64 824.97,896.81 852.30,906.15">
        <lane index="0" allow="pedestrian"/>
    </edge>
    <edge id="-37415994" from="437327480" to="307961022" type="highway.footway" numLanes="1" speed="8.33">
        <lane index="0" allow="pedestrian"/>
    </edge>
    <edge id="-37593790#0" from="633292230" to="440696682" type="highway.footway" numLanes="1" speed="8.33">
        <lane index="0" allow="pedestrian"/>
    </edge>
    <edge id="-37593790#1" from="450519041" to="633292230" type="highway.footway" numLanes="1" speed="8.33">
        <lane index="0" allow="pedestrian"/>
    </edge>
    <edge id="-37593791#0" from="442839521" to="440696683" type="highway.footway" numLanes="1" speed="8.33">
        <lane index="0" allow="pedestrian"/>
    </edge>
    <edge id="-37593791#1" from="307961027" to="442839521" type="highway.footway" numLanes="1" speed="8.33" shape="816.96,728.68 822.18,730.80 822.53,729.77">
        <lane index="0" allow="pedestrian"/>
    </edge>
    <edge id="-37601917" from="429587921" to="429587902" type="highway.footway" numLanes="1" speed="8.33">
        <lane index="0" allow="pedestrian"/>
    </edge>
    <edge id="-37601918" from="440765482" to="440765481" type="highway.service" numLanes="1" speed="5.56" shape="771.12,935.39 746.50,930.47 739.07,933.57">
        <lane index="0" allow="delivery"/>
    </edge>
    <edge id="-37752125#0" from="442839558" to="442839529" type="highway.service" numLanes="1" speed="5.56" shape="827.59,732.85 830.68,725.70 845.08,731.17 839.06,746.92 834.51,759.09">
        <lane index="0" allow="delivery"/>
    </edge>
    <edge id="-37752125#1" from="442839527" to="442839558" type="highway.service" numLanes="1" speed="5.56">
        <lane index="0" allow="delivery"/>
    </edge>
    <edge id="-37752126#0" from="442839558" to="442839576" type="highway.footway" numLanes="1" speed="8.33">
        <lane index="0" allow="pedestrian"/>
    </edge>
    <edge id="-37752126#1" from="442839521" to="442839558" type="highway.footway" numLanes="1" speed="8.33">
        <lane index="0" allow="pedestrian"/>
    </edge>
    <edge id="-38167738#0" from="1424270250" to="269964106" type="highway.residential" numLanes="1" speed="13.89"/>
    <edge id="-38167738#1" from="436828502" to="1424270250" type="highway.residential" numLanes="1" speed="13.89"/>
    <edge id="-38167738#2" from="293696530" to="436828502" type="highway.residential" numLanes="1" speed="13.89"/>
    <edge id="-38167738#3" from="440696682" to="293696530" type="highway.residential" numLanes="1" speed="13.89"/>
    <edge id="-38167738#4" from="291185143" to="440696682" type="highway.residential" numLanes="1" speed="13.89"/>
    <edge id="-38167738#5" from="293695864" to="291185143" type="highway.residential" numLanes="1" speed="13.89"/>
    <edge id="-38167738#6" from="1424274807" to="293695864" type="highway.residential" numLanes="1" speed="13.89"/>
    <edge id="-38167738#7" from="291185412" to="1424274807" type="highway.residential" numLanes="1" speed="13.89"/>
    <edge id="-38167738#8" from="cluster_269964112_269964114" to="291185412" type="highway.residential" numLanes="1" speed="13.89" shape="866.03,718.60 849.80,764.58"/>
    <edge id="-38167741#1" from="36854115" to="cluster_269964112_269964114" type="highway.residential" numLanes="1" speed="8.33" shape="879.39,677.58 869.52,707.34"/>
    <edge id="-38167741#2" from="36854116" to="36854115" type="highway.residential" numLanes="1" speed="8.33" shape="903.77,602.61 887.71,653.23 879.39,677.58"/>
    <edge id="-38167741#3" from="cluster_339975567_43242046" to="36854116" type="highway.residential" numLanes="1" speed="8.33" shape="929.03,529.38 916.61,566.13 903.77,602.61"/>
    <edge id="-38167741#5" from="269964113" to="cluster_339975567_43242046" type="highway.residential" numLanes="1" speed="8.33" shape="949.87,481.16 929.88,526.13"/>
    <edge id="-38227185" from="440696681" to="450519041" type="highway.steps" numLanes="1" speed="1.39">
        <lane index="0" allow="pedestrian"/>
    </edge>
    <edge id="-38306209" from="429587901" to="429587906" type="highway.steps" numLanes="1" speed="1.39">
        <lane index="0" allow="pedestrian"/>
    </edge>
    <edge id="-39085064" from="467011004" to="467011002" type="highway.footway" numLanes="1" speed="8.33" shape="652.81,670.46 606.60,664.03 550.07,661.50">
        <lane index="0" allow="pedestrian"/>
    </edge>
    <edge id="-4304448#1" from="34677652" to="cluster_26153648_34043448" type="highway.residential" numLanes="1" speed="8.33" shape="585.43,860.15 614.09,863.55"/>
    <edge id="-44068783" from="560140375" to="560140373" type="highway.service" numLanes="1" speed="5.56" shape="419.49,766.11 380.90,759.16 385.19,635.53">
        <lane index="0" allow="delivery"/>
    </edge>
    <edge id="-44419041" from="564631547" to="564631546" type="highway.service" numLanes="1" speed="5.56">
        <lane index="0" allow="delivery"/>
    </edge>
    <edge id="-47328513" from="602783338" to="36854120" type="highway.path" numLanes="1" speed="2.78">
        <lane index="0" allow="pedestrian"/>
    </edge>
    <edge id="-49042723#0" from="622336955" to="622336943" type="highway.footway" numLanes="1" speed="8.33" shape="341.09,430.37 332.53,430.84 326.09,437.13 334.24,449.39">
        <lane index="0" allow="pedestrian"/>
    </edge>
    <edge id="-49042723#1" from="622336960" to="622336955" type="highway.footway" numLanes="1" speed="8.33">
        <lane index="0" allow="pedestrian"/>
    </edge>
    <edge id="-49042724" from="622336943" to="277697625" type="highway.steps" numLanes="1" speed="1.39">
        <lane index="0" allow="pedestrian"/>
    </edge>
    <edge id="-49042726#0" from="622336972" to="622336968" type="highway.footway" numLanes="1" speed="8.33">
        <lane index="0" allow="pedestrian"/>
    </edge>
    <edge id="-49042726#1" from="622336980" to="622336972" type="highway.footway" numLanes="1" speed="8.33">
        <lane index="0" allow="pedestrian"/>
    </edge>
    <edge id="-49042726#2" from="622336990" to="622336980" type="highway.footway" numLanes="1" speed="8.33" shape="325.00,404.20 326.45,421.63 326.89,428.10 340.93,427.27">
        <lane index="0" allow="pedestrian"/>
    </edge>
    <edge id="-49042727" from="622336999" to="622336972" type="highway.footway" numLanes="1" speed="8.33" shape="342.03,402.83 343.23,421.37 343.48,427.11">
        <lane index="0" allow="pedestrian"/>
    </edge>
    <edge id="-49042728" from="622336955" to="622336980" type="highway.steps" numLanes="1" speed="1.39">
        <lane index="0" allow="pedestrian"/>
    </edge>
    <edge id="-49047248" from="277697630" to="cluster_270703615_622360014" type="highway.footway" numLanes="1" speed="8.33" shape="355.65,465.81 361.16,471.85 366.29,475.02 371.39,476.40 378.15,476.55 381.37,476.65">
        <lane index="0" allow="pedestrian"/>
    </edge>
    <edge id="-49844607" from="633292230" to="293696007" type="highway.footway" numLanes="1" speed="8.33">
        <lane index="0" allow="pedestrian"/>
    </edge>
    <edge id="-50005239#0" from="622336960" to="277697623" type="highway.service" numLanes="1" speed="5.56" shape="365.98,428.99 366.22,436.76 362.43,443.58 352.25,452.22">
        <lane index="0" allow="delivery"/>
    </edge>
    <edge id="-50005239#1" from="622336968" to="622336960" type="highway.service" numLanes="1" speed="5.56">
        <lane index="0" allow="delivery"/>
    </edge>
    <edge id="-50005239#2" from="277697633" to="622336968" type="highway.service" numLanes="1" speed="5.56" shape="364.31,401.02 364.69,407.88 365.79,425.79">
        <lane index="0" allow="delivery"/>
    </edge>
    <edge id="-5088373#0" from="34677731" to="34677711" type="highway.residential" numLanes="1" speed="8.33"/>
    <edge id="-5088373#1" from="277697633" to="34677731" type="highway.residential" numLanes="1" speed="8.33"/>
    <edge id="-5088373#2" from="622336999" to="277697633" type="highway.residential" numLanes="1" speed="8.33"/>
    <edge id="-5088373#3" from="622336990" to="622336999" type="highway.residential" numLanes="1" speed="8.33"/>
    <edge id="-5088373#4" from="35510535" to="622336990" type="highway.residential" numLanes="1" speed="8.33"/>
    <edge id="-5229164#0" from="34814866" to="34814874" type="highway.residential" numLanes="1" speed="8.33" shape="979.73,400.06 837.74,311.95 803.16,290.88"/>
    <edge id="-5229164#1" from="27557122" to="34814866" type="highway.residential" numLanes="1" speed="8.33" shape="1593.78,748.25 1506.54,715.46 1455.13,690.58 1321.22,610.52 1266.64,577.07 1253.76,569.19 1184.74,526.90 1153.07,507.26 1033.98,433.60 979.73,400.06"/>
    <edge id="-5237595" from="36854116" to="28142772" type="highway.residential" numLanes="1" speed="8.33"/>
    <edge id="-5237597" from="36854120" to="36854115" type="highway.service" numLanes="1" speed="5.56">
        <lane index="0" allow="delivery"/>
    </edge>