<?xml version="1.0" encoding="UTF-8"?>

<!-- generated on 08/28/13 08:45:31 by SUMO duarouter Version 0.18.0
<?xml version="1.0" encoding="UTF-8"?>

<configuration xmlns:xsi="http://www.w3.org/2001/XMLSchema-instance" xsi:noNamespaceSchemaLocation="https://sumo.sf.net/xsd/duarouterConfiguration.xsd">

    <input>
        <net-file value="data/rilsa2.net.xml"/>
        <flow-files value="data/input_flows.flows.xml"/>
    </input>

    <output>
        <output-file value="data/genroutes.rou.xml"/>
        <vtype-output value=""/>
    </output>

    <report>
        <verbose value="true"/>
        <no-step-log value="true"/>
    </report>

</configuration>
-->

<routes xmlns:xsi="http://www.w3.org/2001/XMLSchema-instance" xsi:noNamespaceSchemaLocation="https://sumo.sf.net/xsd/routes_file.xsd">
    <vehicle id="em2msLKW.0" type="LKW" depart="0.00" departLane="best" departPos="base" departSpeed="max" arrivalPos="-1.00">
        <route edges="em ins ms"/>
    </vehicle>
    <vehicle id="em2msPKW.0" type="PKW" depart="0.00" departLane="best" departPos="base" departSpeed="max" arrivalPos="-1.00">
        <route edges="em ins ms"/>
    </vehicle>
    <vehicle id="em2mwLKW.0" type="LKW" depart="0.00" departLane="best" departPos="base" departSpeed="max" arrivalPos="-1.00">
        <route edges="em mw"/>
    </vehicle>
    <vehicle id="em2mwPKW.0" type="PKW" depart="0.00" departLane="best" departPos="base" departSpeed="max" arrivalPos="-1.00">
        <route edges="em mw"/>
    </vehicle>
    <vehicle id="sm2meLKW.0" type="LKW" depart="0.00" departLane="best" departPos="base" departSpeed="max" arrivalPos="-1.00">
        <route edges="sm me"/>
    </vehicle>
    <vehicle id="sm2mePKW.0" type="PKW" depart="0.00" departLane="best" departPos="base" departSpeed="max" arrivalPos="-1.00">
        <route edges="sm me"/>
    </vehicle>
    <vehicle id="sm2mwLKW.0" type="LKW" depart="0.00" departLane="best" departPos="base" departSpeed="max" arrivalPos="-1.00">
        <route edges="sm isn mw"/>
    </vehicle>
    <vehicle id="sm2mwPKW.0" type="PKW" depart="0.00" departLane="best" departPos="base" departSpeed="max" arrivalPos="-1.00">
        <route edges="sm isn mw"/>
    </vehicle>
    <vehicle id="wm2meLKW.0" type="LKW" depart="0.00" departLane="best" departPos="base" departSpeed="max" arrivalPos="-1.00">
        <route edges="wm me"/>
    </vehicle>
    <vehicle id="wm2mePKW.0" type="PKW" depart="0.00" departLane="best" departPos="base" departSpeed="max" arrivalPos="-1.00">
        <route edges="wm me"/>
    </vehicle>
    <vehicle id="wm2msLKW.0" type="LKW" depart="0.00" departLane="best" departPos="base" departSpeed="max" arrivalPos="-1.00">
        <route edges="wm ms"/>
    </vehicle>
    <vehicle id="wm2msPKW.0" type="PKW" depart="0.00" departLane="best" departPos="base" departSpeed="max" arrivalPos="-1.00">
        <route edges="wm ms"/>
    </vehicle>
    <vehicle id="em2mwPKW.1" type="PKW" depart="3.08" departLane="best" departPos="base" departSpeed="max" arrivalPos="-1.00">
        <route edges="em mw"/>
    </vehicle>
    <vehicle id="wm2mePKW.1" type="PKW" depart="3.46" departLane="best" departPos="base" departSpeed="max" arrivalPos="-1.00">
        <route edges="wm me"/>
    </vehicle>
    <vehicle id="em2mwPKW.2" type="PKW" depart="6.17" departLane="best" departPos="base" departSpeed="max" arrivalPos="-1.00">
        <route edges="em mw"/>
    </vehicle>
    <vehicle id="wm2mePKW.2" type="PKW" depart="6.92" departLane="best" departPos="base" departSpeed="max" arrivalPos="-1.00">
        <route edges="wm me"/>
    </vehicle>
    <vehicle id="em2mwPKW.3" type="PKW" depart="9.25" departLane="best" departPos="base" departSpeed="max" arrivalPos="-1.00">
        <route edges="em mw"/>
    </vehicle>
    <vehicle id="wm2mePKW.3" type="PKW" depart="10.37" departLane="best" departPos="base" departSpeed="max" arrivalPos="-1.00">
        <route edges="wm me"/>
    </vehicle>
    <vehicle id="em2msPKW.1" type="PKW" depart="12.24" departLane="best" departPos="base" departSpeed="max" arrivalPos="-1.00">
        <route edges="em ins ms"/>
    </vehicle>
    <vehicle id="em2mwPKW.4" type="PKW" depart="12.34" departLane="best" departPos="base" departSpeed="max" arrivalPos="-1.00">
        <route edges="em mw"/>
    </vehicle>
    <vehicle id="wm2mePKW.4" type="PKW" depart="13.83" departLane="best" departPos="base" departSpeed="max" arrivalPos="-1.00">
        <route edges="wm me"/>
    </vehicle>
    <vehicle id="sm2mePKW.1" type="PKW" depart="14.01" departLane="best" departPos="base" departSpeed="max" arrivalPos="-1.00">
        <route edges="sm me"/>
    </vehicle>
    <vehicle id="sm2mwPKW.1" type="PKW" depart="14.34" departLane="best" departPos="base" departSpeed="max" arrivalPos="-1.00">
        <route edges="sm isn mw"/>
    </vehicle>
    <vehicle id="em2mwPKW.5" type="PKW" depart="15.42" departLane="best" departPos="base" departSpeed="max" arrivalPos="-1.00">
        <route edges="em mw"/>
    </vehicle>
    <vehicle id="wm2mePKW.5" type="PKW" depart="17.29" departLane="best" departPos="base" departSpeed="max" arrivalPos="-1.00">
        <route edges="wm me"/>
    </vehicle>
    <vehicle id="em2mwPKW.6" type="PKW" depart="18.50" departLane="best" departPos="base" departSpeed="max" arrivalPos="-1.00">
        <route edges="em mw"/>
    </vehicle>
    <vehicle id="wm2mePKW.6" type="PKW" depart="20.75" departLane="best" departPos="base" departSpeed="max" arrivalPos="-1.00">
        <route edges="wm me"/>
    </vehicle>
    <vehicle id="em2mwPKW.7" type="PKW" depart="21.59" departLane="best" departPos="base" departSpeed="max" arrivalPos="-1.00">
        <route edges="em mw"/>
    </vehicle>
    <vehicle id="wm2msPKW.1" type="PKW" depart="21.82" departLane="best" departPos="base" departSpeed="max" arrivalPos="-1.00">
        <route edges="wm ms"/>
    </vehicle>
    <vehicle id="wm2mePKW.7" type="PKW" depart="24.21" departLane="best" departPos="base" departSpeed="max" arrivalPos="-1.00">
        <route edges="wm me"/>
    </vehicle>
    <vehicle id="em2msPKW.2" type="PKW" depart="24.49" departLane="best" departPos="base" departSpeed="max" arrivalPos="-1.00">
        <route edges="em ins ms"/>
    </vehicle>
    <vehicle id="em2mwPKW.8" type="PKW" depart="24.67" departLane="best" departPos="base" departSpeed="max" arrivalPos="-1.00">
        <route edges="em mw"/>
    </vehicle>
    <vehicle id="wm2mePKW.8" type="PKW" depart="27.66" departLane="best" departPos="base" departSpeed="max" arrivalPos="-1.00">
        <route edges="wm me"/>
    </vehicle>
    <vehicle id="em2mwPKW.9" type="PKW" depart="27.76" departLane="best" departPos="base" departSpeed="max" arrivalPos="-1.00">
        <route edges="em mw"/>
    </vehicle>
    <vehicle id="em2mwLKW.1" type="LKW" depart="27.91" departLane="best" departPos="base" departSpeed="max" arrivalPos="-1.00">
        <route edges="em mw"/>
    </vehicle>
    <vehicle id="sm2mePKW.2" type="PKW" depart="28.01" departLane="best" departPos="base" departSpeed="max" arrivalPos="-1.00">
        <route edges="sm me"/>
    </vehicle>
    <vehicle id="sm2mwPKW.2" type="PKW" depart="28.68" departLane="best" departPos="base" departSpeed="max" arrivalPos="-1.00">
        <route edges="sm isn mw"/>
    </vehicle>
    <vehicle id="em2mwPKW.10" type="PKW" depart="30.84" departLane="best" departPos="base" departSpeed="max" arrivalPos="-1.00">
        <route edges="em mw"/>
    </vehicle>
    <vehicle id="wm2mePKW.9" type="PKW" depart="31.12" departLane="best" departPos="base" departSpeed="max" arrivalPos="-1.00">
        <route edges="wm me"/>
    </vehicle>
    <vehicle id="em2mwPKW.11" type="PKW" depart="33.92" departLane="best" departPos="base" departSpeed="max" arrivalPos="-1.00">
        <route edges="em mw"/>
    </vehicle>
    <vehicle id="wm2mePKW.10" type="PKW" depart="34.58" departLane="best" departPos="base" departSpeed="max" arrivalPos="-1.00">
        <route edges="wm me"/>
    </vehicle>
    <vehicle id="wm2meLKW.1" type="LKW" depart="35.29" departLane="best" departPos="base" departSpeed="max" arrivalPos="-1.00">
        <route edges="wm me"/>
    </vehicle>
    <vehicle id="em2msPKW.3" type="PKW" depart="36.73" departLane="best" departPos="base" departSpeed="max" arrivalPos="-1.00">
        <route edges="em ins ms"/>
    </vehicle>
    <vehicle id="em2mwPKW.12" type="PKW" depart="37.01" departLane="best" departPos="base" departSpeed="max" arrivalPos="-1.00">
        <route edges="em mw"/>
    </vehicle>
    <vehicle id="wm2mePKW.11" type="PKW" depart="38.04" departLane="best" departPos="base" departSpeed="max" arrivalPos="-1.00">
        <route edges="wm me"/>
    </vehicle>
    <vehicle id="em2mwPKW.13" type="PKW" depart="40.09" departLane="best" departPos="base" departSpeed="max" arrivalPos="-1.00">
        <route edges="em mw"/>
    </vehicle>
    <vehicle id="wm2mePKW.12" type="PKW" depart="41.50" departLane="best" departPos="base" departSpeed="max" arrivalPos="-1.00">
        <route edges="wm me"/>
    </vehicle>
    <vehicle id="sm2mePKW.3" type="PKW" depart="42.02" departLane="best" departPos="base" departSpeed="max" arrivalPos="-1.00">
        <route edges="sm me"/>
    </vehicle>
    <vehicle id="sm2mwPKW.3" type="PKW" depart="43.03" departLane="best" departPos="base" departSpeed="max" arrivalPos="-1.00">
        <route edges="sm isn mw"/>
    </vehicle>
    <vehicle id="em2mwPKW.14" type="PKW" depart="43.18" departLane="best" departPos="base" departSpeed="max" arrivalPos="-1.00">
        <route edges="em mw"/>
    </vehicle>
    <vehicle id="wm2msPKW.2" type="PKW" depart="43.64" departLane="best" departPos="base" departSpeed="max" arrivalPos="-1.00">
        <route edges="wm ms"/>
    </vehicle>
    <vehicle id="wm2mePKW.13" type="PKW" depart="44.95" departLane="best" departPos="base" departSpeed="max" arrivalPos="-1.00">
        <route edges="wm me"/>
    </vehicle>
    <vehicle id="em2mwPKW.15" type="PKW" depart="46.26" departLane="best" departPos="base" departSpeed="max" arrivalPos="-1.00">
        <route edges="em mw"/>
    </vehicle>
    <vehicle id="wm2mePKW.14" type="PKW" depart="48.41" departLane="best" departPos="base" departSpeed="max" arrivalPos="-1.00">
        <route edges="wm me"/>
    </vehicle>
    <vehicle id="em2msPKW.4" type="PKW" depart="48.98" departLane="best" departPos="base" departSpeed="max" arrivalPos="-1.00">
        <route edges="em ins ms"/>
    </vehicle>
    <vehicle id="em2mwPKW.16" type="PKW" depart="49.34" departLane="best" departPos="base" departSpeed="max" arrivalPos="-1.00">
        <route edges="em mw"/>
    </vehicle>
    <vehicle id="wm2mePKW.15" type="PKW" depart="51.87" departLane="best" departPos="base" departSpeed="max" arrivalPos="-1.00">
        <route edges="wm me"/>
    </vehicle>
    <vehicle id="em2mwPKW.17" type="PKW" depart="52.43" departLane="best" departPos="base" departSpeed="max" arrivalPos="-1.00">
        <route edges="em mw"/>
    </vehicle>
    <vehicle id="wm2mePKW.16" type="PKW" depart="55.33" departLane="best" departPos="base" departSpeed="max" arrivalPos="-1.00">
        <route edges="wm me"/>
    </vehicle>
    <vehicle id="em2mwPKW.18" type="PKW" depart="55.51" departLane="best" departPos="base" departSpeed="max" arrivalPos="-1.00">
        <route edges="em mw"/>
    </vehicle>
    <vehicle id="em2mwLKW.2" type="LKW" depart="55.81" departLane="best" departPos="base" departSpeed="max" arrivalPos="-1.00">
        <route edges="em mw"/>
    </vehicle>
    <vehicle id="sm2mePKW.4" type="PKW" depart="56.03" departLane="best" departPos="base" departSpeed="max" arrivalPos="-1.00">
        <route edges="sm me"/>
    </vehicle>
    <vehicle id="sm2mwPKW.4" type="PKW" depart="57.37" departLane="best" departPos="base" departSpeed="max" arrivalPos="-1.00">
        <route edges="sm isn mw"/>
    </vehicle>
    <vehicle id="em2mwPKW.19" type="PKW" depart="58.60" departLane="best" departPos="base" departSpeed="max" arrivalPos="-1.00">
        <route edges="em mw"/>
    </vehicle>
    <vehicle id="wm2mePKW.17" type="PKW" depart="58.79" departLane="best" departPos="base" departSpeed="max" arrivalPos="-1.00">
        <route edges="wm me"/>
    </vehicle>
    <vehicle id="em2msPKW.5" type="PKW" depart="61.22" departLane="best" departPos="base" departSpeed="max" arrivalPos="-1.00">
        <route edges="em ins ms"/>
    </vehicle>
    <vehicle id="em2mwPKW.20" type="PKW" depart="61.68" departLane="best" departPos="base" departSpeed="max" arrivalPos="-1.00">
        <route edges="em mw"/>
    </vehicle>
    <vehicle id="wm2mePKW.18" type="PKW" depart="62.24" departLane="best" departPos="base" departSpeed="max" arrivalPos="-1.00">
        <route edges="wm me"/>
    </vehicle>
    <vehicle id="em2mwPKW.21" type="PKW" depart="64.76" departLane="best" departPos="base" departSpeed="max" arrivalPos="-1.00">
        <route edges="em mw"/>
    </vehicle>
    <vehicle id="wm2msPKW.3" type="PKW" depart="65.45" departLane="best" departPos="base" departSpeed="max" arrivalPos="-1.00">
        <route edges="wm ms"/>
    </vehicle>
    <vehicle id="wm2mePKW.19" type="PKW" depart="65.70" departLane="best" departPos="base" departSpeed="max" arrivalPos="-1.00">
        <route edges="wm me"/>
    </vehicle>
    <vehicle id="em2mwPKW.22" type="PKW" depart="67.85" departLane="best" departPos="base" departSpeed="max" arrivalPos="-1.00">
        <route edges="em mw"/>
    </vehicle>
    <vehicle id="wm2mePKW.20" type="PKW" depart="69.16" departLane="best" departPos="base" departSpeed="max" arrivalPos="-1.00">
        <route edges="wm me"/>
    </vehicle>
    <vehicle id="sm2mePKW.5" type="PKW" depart="70.03" departLane="best" departPos="base" departSpeed="max" arrivalPos="-1.00">
        <route edges="sm me"/>
    </vehicle>
    <vehicle id="wm2meLKW.2" type="LKW" depart="70.59" departLane="best" departPos="base" departSpeed="max" arrivalPos="-1.00">
        <route edges="wm me"/>
    </vehicle>
    <vehicle id="em2mwPKW.23" type="PKW" depart="70.93" departLane="best" departPos="base" departSpeed="max" arrivalPos="-1.00">
        <route edges="em mw"/>
    </vehicle>
    <vehicle id="sm2mwPKW.5" type="PKW" depart="71.71" departLane="best" departPos="base" departSpeed="max" arrivalPos="-1.00">
        <route edges="sm isn mw"/>
    </vehicle>
    <vehicle id="wm2mePKW.21" type="PKW" depart="72.62" departLane="best" departPos="base" departSpeed="max" arrivalPos="-1.00">
        <route edges="wm me"/>
    </vehicle>
    <vehicle id="em2msPKW.6" type="PKW" depart="73.46" departLane="best" departPos="base" departSpeed="max" arrivalPos="-1.00">
        <route edges="em ins ms"/>
    </vehicle>
    <vehicle id="em2mwPKW.24" type="PKW" depart="74.02" departLane="best" departPos="base" departSpeed="max" arrivalPos="-1.00">
        <route edges="em mw"/>
    </vehicle>
    <vehicle id="wm2mePKW.22" type="PKW" depart="76.08" departLane="best" departPos="base" departSpeed="max" arrivalPos="-1.00">
        <route edges="wm me"/>
    </vehicle>
    <vehicle id="em2mwPKW.25" type="PKW" depart="77.10" departLane="best" departPos="base" departSpeed="max" arrivalPos="-1.00">
        <route edges="em mw"/>
    </vehicle>
    <vehicle id="wm2mePKW.23" type="PKW" depart="79.53" departLane="best" departPos="base" departSpeed="max" arrivalPos="-1.00">
        <route edges="wm me"/>
    </vehicle>
    <vehicle id="em2mwPKW.26" type="PKW" depart="80.18" departLane="best" departPos="base" departSpeed="max" arrivalPos="-1.00">
        <route edges="em mw"/>
    </vehicle>
    <vehicle id="wm2mePKW.24" type="PKW" depart="82.99" departLane="best" departPos="base" departSpeed="max" arrivalPos="-1.00">
        <route edges="wm me"/>
    </vehicle>
    <vehicle id="em2mwPKW.27" type="PKW" depart="83.27" departLane="best" departPos="base" departSpeed="max" arrivalPos="-1.00">
        <route edges="em mw"/>
    </vehicle>
    <vehicle id="em2mwLKW.3" type="LKW" depart="83.72" departLane="best" departPos="base" departSpeed="max" arrivalPos="-1.00">
        <route edges="em mw"/>
    </vehicle>
    <vehicle id="sm2mePKW.6" type="PKW" depart="84.04" departLane="best" departPos="base" departSpeed="max" arrivalPos="-1.00">
        <route edges="sm me"/>
    </vehicle>
    <vehicle id="em2msPKW.7" type="PKW" depart="85.71" departLane="best" departPos="base" departSpeed="max" arrivalPos="-1.00">
        <route edges="em ins ms"/>
    </vehicle>
    <vehicle id="sm2mwPKW.6" type="PKW" depart="86.05" departLane="best" departPos="base" departSpeed="max" arrivalPos="-1.00">
        <route edges="sm isn mw"/>
    </vehicle>
    <vehicle id="em2mwPKW.28" type="PKW" depart="86.35" departLane="best" departPos="base" departSpeed="max" arrivalPos="-1.00">
        <route edges="em mw"/>
    </vehicle>
    <vehicle id="wm2mePKW.25" type="PKW" depart="86.45" departLane="best" departPos="base" departSpeed="max" arrivalPos="-1.00">
        <route edges="wm me"/>
    </vehicle>
    <vehicle id="wm2msPKW.4" type="PKW" depart="87.27" departLane="best" departPos="base" departSpeed="max" arrivalPos="-1.00">
        <route edges="wm ms"/>
    </vehicle>
    <vehicle id="em2mwPKW.29" type="PKW" depart="89.44" departLane="best" departPos="base" departSpeed="max" arrivalPos="-1.00">
        <route edges="em mw"/>
    </vehicle>
    <vehicle id="wm2mePKW.26" type="PKW" depart="89.91" departLane="best" departPos="base" departSpeed="max" arrivalPos="-1.00">
        <route edges="wm me"/>
    </vehicle>
    <vehicle id="em2mwPKW.30" type="PKW" depart="92.52" departLane="best" departPos="base" departSpeed="max" arrivalPos="-1.00">
        <route edges="em mw"/>
    </vehicle>
    <vehicle id="wm2mePKW.27" type="PKW" depart="93.37" departLane="best" departPos="base" departSpeed="max" arrivalPos="-1.00">
        <route edges="wm me"/>
    </vehicle>
    <vehicle id="em2mwPKW.31" type="PKW" depart="95.60" departLane="best" departPos="base" departSpeed="max" arrivalPos="-1.00">
        <route edges="em mw"/>
    </vehicle>
    <vehicle id="wm2mePKW.28" type="PKW" depart="96.82" departLane="best" departPos="base" departSpeed="max" arrivalPos="-1.00">
        <route edges="wm me"/>
    </vehicle>
    <vehicle id="em2msPKW.8" type="PKW" depart="97.95" departLane="best" departPos="base" departSpeed="max" arrivalPos="-1.00">
        <route edges="em ins ms"/>
    </vehicle>
    <vehicle id="sm2mePKW.7" type="PKW" depart="98.05" departLane="best" departPos="base" departSpeed="max" arrivalPos="-1.00">
        <route edges="sm me"/>
    </vehicle>
    <vehicle id="em2mwPKW.32" type="PKW" depart="98.69" departLane="best" departPos="base" departSpeed="max" arrivalPos="-1.00">
        <route edges="em mw"/>
    </vehicle>
    <vehicle id="wm2mePKW.29" type="PKW" depart="100.28" departLane="best" departPos="base" departSpeed="max" arrivalPos="-1.00">
        <route edges="wm me"/>
    </vehicle>
    <vehicle id="sm2mwPKW.7" type="PKW" depart="100.39" departLane="best" departPos="base" departSpeed="max" arrivalPos="-1.00">
        <route edges="sm isn mw"/>
    </vehicle>
    <vehicle id="em2mwPKW.33" type="PKW" depart="101.77" departLane="best" departPos="base" departSpeed="max" arrivalPos="-1.00">
        <route edges="em mw"/>
    </vehicle>
    <vehicle id="wm2mePKW.30" type="PKW" depart="103.74" departLane="best" departPos="base" departSpeed="max" arrivalPos="-1.00">
        <route edges="wm me"/>
    </vehicle>
    <vehicle id="em2mwPKW.34" type="PKW" depart="104.86" departLane="best" departPos="base" departSpeed="max" arrivalPos="-1.00">
        <route edges="em mw"/>
    </vehicle>
    <vehicle id="wm2meLKW.3" type="LKW" depart="105.88" departLane="best" departPos="base" departSpeed="max" arrivalPos="-1.00">
        <route edges="wm me"/>
    </vehicle>
    <vehicle id="wm2mePKW.31" type="PKW" depart="107.20" departLane="best" departPos="base" departSpeed="max" arrivalPos="-1.00">
        <route edges="wm me"/>
    </vehicle>
    <vehicle id="em2mwPKW.35" type="PKW" depart="107.94" departLane="best" departPos="base" departSpeed="max" arrivalPos="-1.00">
        <route edges="em mw"/>
    </vehicle>
    <vehicle id="wm2msPKW.5" type="PKW" depart="109.09" departLane="best" departPos="base" departSpeed="max" arrivalPos="-1.00">
        <route edges="wm ms"/>
    </vehicle>
    <vehicle id="em2msPKW.9" type="PKW" depart="110.20" departLane="best" departPos="base" departSpeed="max" arrivalPos="-1.00">
        <route edges="em ins ms"/>
    </vehicle>
    <vehicle id="wm2mePKW.32" type="PKW" depart="110.66" departLane="best" departPos="base" departSpeed="max" arrivalPos="-1.00">
        <route edges="wm me"/>
    </vehicle>
    <vehicle id="em2mwPKW.36" type="PKW" depart="111.02" departLane="best" departPos="base" departSpeed="max" arrivalPos="-1.00">
        <route edges="em mw"/>
    </vehicle>
    <vehicle id="em2mwLKW.4" type="LKW" depart="111.62" departLane="best" departPos="base" departSpeed="max" arrivalPos="-1.00">
        <route edges="em mw"/>
    </vehicle>
    <vehicle id="sm2mePKW.8" type="PKW" depart="112.06" departLane="best" departPos="base" departSpeed="max" arrivalPos="-1.00">
        <route edges="sm me"/>
    </vehicle>
    <vehicle id="em2mwPKW.37" type="PKW" depart="114.11" departLane="best" departPos="base" departSpeed="max" arrivalPos="-1.00">
        <route edges="em mw"/>
    </vehicle>
    <vehicle id="wm2mePKW.33" type="PKW" depart="114.11" departLane="best" departPos="base" departSpeed="max" arrivalPos="-1.00">
        <route edges="wm me"/>
    </vehicle>
    <vehicle id="sm2mwPKW.8" type="PKW" depart="114.74" departLane="best" departPos="base" departSpeed="max" arrivalPos="-1.00">
        <route edges="sm isn mw"/>
    </vehicle>
    <vehicle id="em2mwPKW.38" type="PKW" depart="117.19" departLane="best" departPos="base" departSpeed="max" arrivalPos="-1.00">
        <route edges="em mw"/>
    </vehicle>
    <vehicle id="wm2mePKW.34" type="PKW" depart="117.57" departLane="best" departPos="base" departSpeed="max" arrivalPos="-1.00">
        <route edges="wm me"/>
    </vehicle>
    <vehicle id="em2mwPKW.39" type="PKW" depart="120.28" departLane="best" departPos="base" departSpeed="max" arrivalPos="-1.00">
        <route edges="em mw"/>
    </vehicle>
    <vehicle id="wm2mePKW.35" type="PKW" depart="121.03" departLane="best" departPos="base" departSpeed="max" arrivalPos="-1.00">
        <route edges="wm me"/>
    </vehicle>
    <vehicle id="em2msPKW.10" type="PKW" depart="122.44" departLane="best" departPos="base" departSpeed="max" arrivalPos="-1.00">
        <route edges="em ins ms"/>
    </vehicle>
    <vehicle id="em2mwPKW.40" type="PKW" depart="123.36" departLane="best" departPos="base" departSpeed="max" arrivalPos="-1.00">
        <route edges="em mw"/>
    </vehicle>
    <vehicle id="wm2mePKW.36" type="PKW" depart="124.49" departLane="best" departPos="base" departSpeed="max" arrivalPos="-1.00">
        <route edges="wm me"/>
    </vehicle>
    <vehicle id="sm2mePKW.9" type="PKW" depart="126.06" departLane="best" departPos="base" departSpeed="max" arrivalPos="-1.00">
        <route edges="sm me"/>
    </vehicle>
    <vehicle id="em2mwPKW.41" type="PKW" depart="126.44" departLane="best" departPos="base" departSpeed="max" arrivalPos="-1.00">
        <route edges="em mw"/>
    </vehicle>
    <vehicle id="wm2mePKW.37" type="PKW" depart="127.95" departLane="best" departPos="base" departSpeed="max" arrivalPos="-1.00">
        <route edges="wm me"/>
    </vehicle>
    <vehicle id="sm2mwPKW.9" type="PKW" depart="129.08" departLane="best" departPos="base" departSpeed="max" arrivalPos="-1.00">
        <route edges="sm isn mw"/>
    </vehicle>
    <vehicle id="em2mwPKW.42" type="PKW" depart="129.53" departLane="best" departPos="base" departSpeed="max" arrivalPos="-1.00">
        <route edges="em mw"/>
    </vehicle>
    <vehicle id="wm2msPKW.6" type="PKW" depart="130.91" departLane="best" departPos="base" departSpeed="max" arrivalPos="-1.00">
        <route edges="wm ms"/>
    </vehicle>
    <vehicle id="wm2mePKW.38" type="PKW" depart="131.40" departLane="best" departPos="base" departSpeed="max" arrivalPos="-1.00">
        <route edges="wm me"/>
    </vehicle>
    <vehicle id="em2mwPKW.43" type="PKW" depart="132.61" departLane="best" departPos="base" departSpeed="max" arrivalPos="-1.00">
        <route edges="em mw"/>
    </vehicle>
    <vehicle id="em2msPKW.11" type="PKW" depart="134.68" departLane="best" departPos="base" departSpeed="max" arrivalPos="-1.00">
        <route edges="em ins ms"/>
    </vehicle>
    <vehicle id="wm2mePKW.39" type="PKW" depart="134.86" departLane="best" departPos="base" departSpeed="max" arrivalPos="-1.00">
        <route edges="wm me"/>
    </vehicle>
    <vehicle id="em2mwPKW.44" type="PKW" depart="135.70" departLane="best" departPos="base" departSpeed="max" arrivalPos="-1.00">
        <route edges="em mw"/>
    </vehicle>
    <vehicle id="wm2mePKW.40" type="PKW" depart="138.32" departLane="best" departPos="base" departSpeed="max" arrivalPos="-1.00">
        <route edges="wm me"/>
    </vehicle>
    <vehicle id="em2mwPKW.45" type="PKW" depart="138.78" departLane="best" departPos="base" departSpeed="max" arrivalPos="-1.00">
        <route edges="em mw"/>
    </vehicle>
    <vehicle id="em2mwLKW.5" type="LKW" depart="139.53" departLane="best" departPos="base" departSpeed="max" arrivalPos="-1.00">
        <route edges="em mw"/>
    </vehicle>
    <vehicle id="sm2mePKW.10" type="PKW" depart="140.07" departLane="best" departPos="base" departSpeed="max" arrivalPos="-1.00">
        <route edges="sm me"/>
    </vehicle>
    <vehicle id="wm2meLKW.4" type="LKW" depart="141.18" departLane="best" departPos="base" departSpeed="max" arrivalPos="-1.00">
        <route edges="wm me"/>
    </vehicle>
    <vehicle id="wm2mePKW.41" type="PKW" depart="141.78" departLane="best" departPos="base" departSpeed="max" arrivalPos="-1.00">
        <route edges="wm me"/>
    </vehicle>
    <vehicle id="em2mwPKW.46" type="PKW" depart="141.86" departLane="best" departPos="base" departSpeed="max" arrivalPos="-1.00">
        <route edges="em mw"/>
    </vehicle>
    <vehicle id="sm2mwPKW.10" type="PKW" depart="143.42" departLane="best" departPos="base" departSpeed="max" arrivalPos="-1.00">
        <route edges="sm isn mw"/>
    </vehicle>
    <vehicle id="em2mwPKW.47" type="PKW" depart="144.95" departLane="best" departPos="base" departSpeed="max" arrivalPos="-1.00">
        <route edges="em mw"/>
    </vehicle>
    <vehicle id="wm2mePKW.42" type="PKW" depart="145.24" departLane="best" departPos="base" departSpeed="max" arrivalPos="-1.00">
        <route edges="wm me"/>
    </vehicle>
    <vehicle id="em2msPKW.12" type="PKW" depart="146.93" departLane="best" departPos="base" departSpeed="max" arrivalPos="-1.00">
        <route edges="em ins ms"/>
    </vehicle>
    <vehicle id="em2mwPKW.48" type="PKW" depart="148.03" departLane="best" departPos="base" departSpeed="max" arrivalPos="-1.00">
        <route edges="em mw"/>
    </vehicle>
    <vehicle id="wm2mePKW.43" type="PKW" depart="148.69" departLane="best" departPos="base" departSpeed="max" arrivalPos="-1.00">
        <route edges="wm me"/>
    </vehicle>
    <vehicle id="em2mwPKW.49" type="PKW" depart="151.12" departLane="best" departPos="base" departSpeed="max" arrivalPos="-1.00">
        <route edges="em mw"/>
    </vehicle>
    <vehicle id="wm2mePKW.44" type="PKW" depart="152.15" departLane="best" departPos="base" departSpeed="max" arrivalPos="-1.00">
        <route edges="wm me"/>
    </vehicle>
    <vehicle id="wm2msPKW.7" type="PKW" depart="152.73" departLane="best" departPos="base" departSpeed="max" arrivalPos="-1.00">
        <route edges="wm ms"/>
    </vehicle>
    <vehicle id="sm2mePKW.11" type="PKW" depart="154.08" departLane="best" departPos="base" departSpeed="max" arrivalPos="-1.00">
        <route edges="sm me"/>
    </vehicle>
    <vehicle id="em2mwPKW.50" type="PKW" depart="154.20" departLane="best" departPos="base" departSpeed="max" arrivalPos="-1.00">
        <route edges="em mw"/>
    </vehicle>
    <vehicle id="wm2mePKW.45" type="PKW" depart="155.61" departLane="best" departPos="base" departSpeed="max" arrivalPos="-1.00">
        <route edges="wm me"/>
    </vehicle>
    <vehicle id="em2mwPKW.51" type="PKW" depart="157.28" departLane="best" departPos="base" departSpeed="max" arrivalPos="-1.00">
        <route edges="em mw"/>
    </vehicle>
    <vehicle id="sm2mwPKW.11" type="PKW" depart="157.76" departLane="best" departPos="base" departSpeed="max" arrivalPos="-1.00">
        <route edges="sm isn mw"/>
    </vehicle>
    <vehicle id="wm2mePKW.46" type="PKW" depart="159.07" departLane="best" departPos="base" departSpeed="max" arrivalPos="-1.00">
        <route edges="wm me"/>
    </vehicle>
    <vehicle id="em2msPKW.13" type="PKW" depart="159.17" departLane="best" departPos="base" departSpeed="max" arrivalPos="-1.00">
        <route edges="em ins ms"/>
    </vehicle>
    <vehicle id="em2mwPKW.52" type="PKW" depart="160.37" departLane="best" departPos="base" departSpeed="max" arrivalPos="-1.00">
        <route edges="em mw"/>
    </vehicle>
    <vehicle id="wm2mePKW.47" type="PKW" depart="162.53" departLane="best" departPos="base" departSpeed="max" arrivalPos="-1.00">
        <route edges="wm me"/>
    </vehicle>
    <vehicle id="em2mwPKW.53" type="PKW" depart="163.45" departLane="best" departPos="base" departSpeed="max" arrivalPos="-1.00">
        <route edges="em mw"/>
    </vehicle>
    <vehicle id="wm2mePKW.48" type="PKW" depart="165.98" departLane="best" departPos="base" departSpeed="max" arrivalPos="-1.00">
        <route edges="wm me"/>
    </vehicle>
    <vehicle id="em2mwPKW.54" type="PKW" depart="166.54" departLane="best" departPos="base" departSpeed="max" arrivalPos="-1.00">
        <route edges="em mw"/>
    </vehicle>
    <vehicle id="em2mwLKW.6" type="LKW" depart="167.44" departLane="best" departPos="base" departSpeed="max" arrivalPos="-1.00">
        <route edges="em mw"/>
    </vehicle>