<?xml version="1.0" encoding="iso-8859-1"?>

<!--
// Copyright (C) 2011 Christoph Sommer <sommer@ccs-labs.org>
//
// Documentation for these modules is at http://veins.car2x.org/
//
// SPDX-License-Identifier: CC-BY-SA-2.0
//
// You can redistribute and/or modify this file
// under a
// Creative Commons Attribution-ShareAlike 2.0 Generic License.
//
// You should have received a copy of the license along with this
// work.  If not, see <http://creativecommons.org/licenses/by-sa/2.0/>.
-->

<!--
Based on map data Copyright (C) 2011 OpenStreetMap contributors <http://openstreetmap.org>
Licensed under the Creative Commons Attribution-ShareAlike 2.0 license <http://creativecommons.org/licenses/by-sa/2.0/>
-->

<!-- generated on Wed Nov 30 12:18:33 2011 by SUMO netconvert Version 0.13.1
<?xml version="1.0" encoding="iso-8859-1"?>

<configuration xmlns:xsi="http://www.w3.org/2001/XMLSchema-instance" xsi:noNamespaceSchemaLocation="http://sumo.sf.net/xsd/netconvertConfiguration.xsd">

    <input>
        <type-files value="erlangen.edgetypes.xml"/>
        <osm-files value="erlangen.osm"/>
    </input>

    <output>
        <output-file value="erlangen.net.xml"/>
    </output>

    <projection>
        <proj.utm value="true"/>
    </projection>

    <edge_removal>
        <remove-edges.isolated value="true"/>
    </edge_removal>

    <processing>
        <osm.discard-tls value="true"/>
        <no-turnarounds value="false"/>
        <offset.disable-normalization value="true"/>
        <roundabouts.guess value="true"/>
        <junctions.join value="true"/>
    </processing>

</configuration>
-->

<net version="0.13" xmlns:xsi="http://www.w3.org/2001/XMLSchema-instance" xsi:noNamespaceSchemaLocation="http://sumo.sf.net/xsd/net_file.xsd">

    <location netOffset="0.00,0.00" convBoundary="644465.09,5491786.25,647071.55,5494795.98" origBoundary="10.998195,49.560791,11.034775,49.587847" projParameter="+proj=utm +zone=32 +ellps=WGS84 +datum=WGS84 +units=m +no_defs"/>

    <edge id=":1096168863_0" function="internal">
        <lane id=":1096168863_0_0" index="0" speed="22.22" length="1.71" shape="644936.18,5493455.24 644935.09,5493453.92"/>
    </edge>
    <edge id=":1096168863_1" function="internal">
        <lane id=":1096168863_1_0" index="0" speed="22.22" length="2.46" shape="644936.18,5493455.24 644934.76,5493454.69 644934.16,5493453.96"/>
    </edge>
    <edge id=":1096168863_4" function="internal">
        <lane id=":1096168863_4_0" index="0" speed="22.22" length="2.46" shape="644934.16,5493453.96 644934.39,5493453.05 644935.44,5493451.95"/>
    </edge>
    <edge id=":1096168863_2" function="internal">
        <lane id=":1096168863_2_0" index="0" speed="22.22" length="1.79" shape="644935.05,5493453.69 644935.44,5493451.95"/>
    </edge>
    <edge id=":1096168863_3" function="internal">
        <lane id=":1096168863_3_0" index="0" speed="22.22" length="0.17" shape="644935.05,5493453.69 644935.22,5493453.72"/>
    </edge>
    <edge id=":1096168863_5" function="internal">
        <lane id=":1096168863_5_0" index="0" speed="22.22" length="0.33" shape="644935.22,5493453.72 644935.28,5493453.77 644935.24,5493453.84 644935.09,5493453.92"/>
    </edge>
    <edge id=":1154372516_0" function="internal">
        <lane id=":1154372516_0_0" index="0" speed="13.89" length="4.93" shape="646774.09,5493156.55 646773.69,5493155.27 646772.98,5493154.40 646771.95,5493153.94 646770.61,5493153.89"/>
    </edge>
    <edge id=":1154372516_1" function="internal">
        <lane id=":1154372516_1_0" index="0" speed="13.89" length="5.26" shape="646774.09,5493156.55 646773.91,5493154.00 646774.26,5493151.78 646774.46,5493151.37"/>
    </edge>
    <edge id=":1154372516_9" function="internal">
        <lane id=":1154372516_9_0" index="0" speed="13.89" length="3.72" shape="646774.46,5493151.37 646775.15,5493149.91 646776.58,5493148.37"/>
    </edge>
    <edge id=":1154372516_2" function="internal">
        <lane id=":1154372516_2_0" index="0" speed="13.89" length="2.41" shape="646774.09,5493156.55 646774.70,5493155.19 646775.45,5493154.65"/>
    </edge>
    <edge id=":1154372516_10" function="internal">
        <lane id=":1154372516_10_0" index="0" speed="13.89" length="2.41" shape="646775.45,5493154.65 646776.33,5493154.92 646777.35,5493156.01"/>
    </edge>
    <edge id=":1154372516_3" function="internal">
        <lane id=":1154372516_3_0" index="0" speed="13.89" length="5.49" shape="646778.65,5493150.93 646777.86,5493151.82 646777.38,5493152.97 646777.21,5493154.36 646777.35,5493156.01"/>
    </edge>
    <edge id=":1154372516_4" function="internal">
        <lane id=":1154372516_4_0" index="0" speed="13.89" length="8.57" shape="646778.65,5493150.93 646770.61,5493153.89"/>
    </edge>
    <edge id=":1154372516_5" function="internal">
        <lane id=":1154372516_5_0" index="0" speed="13.89" length="4.82" shape="646778.65,5493150.93 646777.17,5493151.07 646776.33,5493150.69 646776.13,5493149.79 646776.58,5493148.37"/>
    </edge>
    <edge id=":1154372516_6" function="internal">
        <lane id=":1154372516_6_0" index="0" speed="13.89" length="6.69" shape="646770.27,5493150.61 646776.58,5493148.37"/>
    </edge>
    <edge id=":1154372516_7" function="internal">
        <lane id=":1154372516_7_0" index="0" speed="13.89" length="4.33" shape="646770.27,5493150.61 646772.99,5493150.71 646774.46,5493151.37"/>
    </edge>
    <edge id=":1154372516_11" function="internal">
        <lane id=":1154372516_11_0" index="0" speed="13.89" length="5.69" shape="646774.46,5493151.37 646775.08,5493151.65 646776.53,5493153.41 646777.35,5493156.01"/>
    </edge>
    <edge id=":1154372516_8" function="internal">
        <lane id=":1154372516_8_0" index="0" speed="13.89" length="2.41" shape="646770.27,5493150.61 646771.59,5493151.30 646772.09,5493152.08"/>
    </edge>
    <edge id=":1154372516_12" function="internal">
        <lane id=":1154372516_12_0" index="0" speed="13.89" length="2.41" shape="646772.09,5493152.08 646771.76,5493152.95 646770.61,5493153.89"/>
    </edge>
    <edge id=":12247702_0" function="internal">
        <lane id=":12247702_0_0" index="0" speed="11.11" length="7.12" shape="644983.97,5493969.35 644983.60,5493967.43 644982.75,5493966.00 644981.43,5493965.04 644979.62,5493964.56"/>
    </edge>
    <edge id=":12247702_1" function="internal">
        <lane id=":12247702_1_0" index="0" speed="13.89" length="11.15" shape="644983.97,5493969.35 644983.78,5493966.21 644983.61,5493963.79 644983.42,5493961.37 644983.14,5493958.23"/>
    </edge>
    <edge id=":12247702_2" function="internal">
        <lane id=":12247702_2_0" index="0" speed="13.89" length="7.32" shape="644983.97,5493969.35 644984.24,5493966.02 644985.54,5493963.86 644986.88,5493963.29"/>
    </edge>
    <edge id=":12247702_16" function="internal">
        <lane id=":12247702_16_0" index="0" speed="13.89" length="4.39" shape="644986.88,5493963.29 644987.85,5493962.87 644991.18,5493963.04"/>
    </edge>
    <edge id=":12247702_3" function="internal">
        <lane id=":12247702_3_0" index="0" speed="13.89" length="2.41" shape="644983.97,5493969.35 644984.72,5493968.06 644985.52,5493967.60"/>
    </edge>
    <edge id=":12247702_17" function="internal">
        <lane id=":12247702_17_0" index="0" speed="13.89" length="2.41" shape="644985.52,5493967.60 644986.37,5493967.97 644987.26,5493969.15"/>
    </edge>
    <edge id=":12247702_4" function="internal">
        <lane id=":12247702_4_0" index="0" speed="13.89" length="5.33" shape="644990.55,5493966.28 644989.03,5493966.20 644987.98,5493966.65 644987.39,5493967.64 644987.26,5493969.15"/>
    </edge>
    <edge id=":12247702_5" function="internal">
        <lane id=":12247702_5_0" index="0" speed="11.11" length="11.07" shape="644990.55,5493966.28 644987.47,5493965.68 644985.11,5493965.28 644982.74,5493964.94 644979.62,5493964.56"/>
    </edge>
    <edge id=":12247702_6" function="internal">
        <lane id=":12247702_6_0" index="0" speed="13.89" length="11.84" shape="644990.55,5493966.28 644987.53,5493965.27 644985.29,5493963.60 644983.83,5493961.25 644983.14,5493958.23"/>
    </edge>
    <edge id=":12247702_7" function="internal">
        <lane id=":12247702_7_0" index="0" speed="13.89" length="4.82" shape="644990.55,5493966.28 644989.49,5493965.23 644989.25,5493964.34 644989.81,5493963.61 644991.18,5493963.04"/>
    </edge>
    <edge id=":12247702_8" function="internal">
        <lane id=":12247702_8_0" index="0" speed="13.89" length="7.55" shape="644986.43,5493957.94 644986.87,5493959.85 644987.81,5493961.34 644989.25,5493962.40 644991.18,5493963.04"/>
    </edge>
    <edge id=":12247702_9" function="internal">
        <lane id=":12247702_9_0" index="0" speed="13.89" length="11.24" shape="644986.43,5493957.94 644986.71,5493961.09 644986.90,5493963.54 644987.07,5493965.99 644987.26,5493969.15"/>
    </edge>
    <edge id=":12247702_10" function="internal">
        <lane id=":12247702_10_0" index="0" speed="11.11" length="7.32" shape="644986.43,5493957.94 644986.26,5493961.16 644985.06,5493963.34 644983.63,5493964.08"/>
    </edge>
    <edge id=":12247702_18" function="internal">
        <lane id=":12247702_18_0" index="0" speed="11.11" length="4.11" shape="644983.63,5493964.08 644982.85,5493964.48 644979.62,5493964.56"/>
    </edge>
    <edge id=":12247702_11" function="internal">
        <lane id=":12247702_11_0" index="0" speed="13.89" length="2.41" shape="644986.43,5493957.94 644985.72,5493959.25 644984.93,5493959.73"/>
    </edge>
    <edge id=":12247702_19" function="internal">
        <lane id=":12247702_19_0" index="0" speed="13.89" length="2.41" shape="644984.93,5493959.73 644984.08,5493959.39 644983.14,5493958.23"/>
    </edge>
    <edge id=":12247702_12" function="internal">
        <lane id=":12247702_12_0" index="0" speed="11.11" length="5.27" shape="644980.01,5493961.28 644981.50,5493961.24 644982.51,5493960.72 644983.06,5493959.72 644983.14,5493958.23"/>
    </edge>
    <edge id=":12247702_13" function="internal">
        <lane id=":12247702_13_0" index="0" speed="11.11" length="11.32" shape="644980.01,5493961.28 644983.16,5493961.67 644985.62,5493962.02 644988.07,5493962.44 644991.18,5493963.04"/>
    </edge>
    <edge id=":12247702_14" function="internal">
        <lane id=":12247702_14_0" index="0" speed="11.11" length="11.79" shape="644980.01,5493961.28 644983.02,5493962.08 644985.24,5493963.65 644986.65,5493966.01 644987.26,5493969.15"/>
    </edge>
    <edge id=":12247702_15" function="internal">
        <lane id=":12247702_15_0" index="0" speed="8.33" length="4.82" shape="644980.01,5493961.28 644981.14,5493962.25 644981.45,5493963.11 644980.95,5493963.89 644979.62,5493964.56"/>
    </edge>
    <edge id=":12247705_0" function="internal">
        <lane id=":12247705_0_0" index="0" speed="13.89" length="4.82" shape="644900.62,5494573.77 644899.58,5494574.83 644898.69,5494575.07 644897.96,5494574.51 644897.38,5494573.14"/>
    </edge>
    <edge id=":12452102_0" function="internal">
        <lane id=":12452102_0_0" index="0" speed="22.22" length="0.10" shape="646608.14,5492677.35 646608.14,5492677.35"/>
    </edge>
    <edge id=":12452103_0" function="internal">
        <lane id=":12452103_0_0" index="0" speed="19.44" length="6.17" shape="646882.48,5492682.42 646882.43,5492688.59"/>
    </edge>
    <edge id=":12452103_1" function="internal">
        <lane id=":12452103_1_0" index="0" speed="22.22" length="4.82" shape="646882.48,5492682.42 646881.64,5492683.65 646880.81,5492684.05 646879.99,5492683.63 646879.18,5492682.38"/>
    </edge>
    <edge id=":12452103_2" function="internal">
        <lane id=":12452103_2_0" index="0" speed="22.22" length="5.00" shape="646876.04,5492685.46 646877.40,5492685.27 646878.38,5492684.69 646878.97,5492683.73 646879.18,5492682.38"/>
    </edge>
    <edge id=":12452103_3" function="internal">
        <lane id=":12452103_3_0" index="0" speed="19.44" length="7.85" shape="646876.04,5492685.46 646878.84,5492685.66 646880.84,5492686.25 646882.04,5492687.23 646882.43,5492688.59"/>
    </edge>
    <edge id=":12452103_4" function="internal">
        <lane id=":12452103_4_0" index="0" speed="19.44" length="6.19" shape="646879.13,5492688.57 646879.18,5492682.38"/>
    </edge>
    <edge id=":12452103_5" function="internal">
        <lane id=":12452103_5_0" index="0" speed="16.67" length="4.82" shape="646879.13,5492688.57 646879.96,5492687.34 646880.79,5492686.93 646881.61,5492687.35 646882.43,5492688.59"/>
    </edge>
    <edge id=":12452110_0" function="internal">
        <lane id=":12452110_0_0" index="0" speed="16.67" length="4.82" shape="647065.53,5494796.01 647064.69,5494797.23 647063.86,5494797.63 647063.04,5494797.21 647062.23,5494795.96"/>
    </edge>
    <edge id=":1316826203_0" function="internal">
        <lane id=":1316826203_0_0" index="0" speed="13.89" length="4.82" shape="646859.54,5493240.69 646860.42,5493241.89 646860.52,5493242.80 646859.85,5493243.44 646858.40,5493243.79"/>
    </edge>
    <edge id=":13493753_0" function="internal">
        <lane id=":13493753_0_0" index="0" speed="11.11" length="5.28" shape="644955.42,5493754.87 644954.89,5493753.61 644954.03,5493752.82 644952.84,5493752.51 644951.34,5493752.69"/>
    </edge>
    <edge id=":13493753_1" function="internal">
        <lane id=":13493753_1_0" index="0" speed="13.89" length="9.66" shape="644955.42,5493754.87 644952.63,5493745.62"/>
    </edge>
    <edge id=":13493753_2" function="internal">
        <lane id=":13493753_2_0" index="0" speed="13.89" length="2.41" shape="644955.42,5493754.87 644955.93,5493753.47 644956.63,5493752.87"/>
    </edge>
    <edge id=":13493753_9" function="internal">
        <lane id=":13493753_9_0" index="0" speed="13.89" length="2.41" shape="644956.63,5493752.87 644957.53,5493753.08 644958.63,5493754.08"/>
    </edge>
    <edge id=":13493753_3" function="internal">
        <lane id=":13493753_3_0" index="0" speed="13.89" length="9.99" shape="644955.74,5493744.52 644958.63,5493754.08"/>
    </edge>
    <edge id=":13493753_4" function="internal">
        <lane id=":13493753_4_0" index="0" speed="11.11" length="7.50" shape="644955.74,5493744.52 644956.33,5493747.47 644955.79,5493749.82 644954.35,5493751.32"/>
    </edge>
    <edge id=":13493753_10" function="internal">
        <lane id=":13493753_10_0" index="0" speed="11.11" length="3.34" shape="644954.35,5493751.32 644954.13,5493751.56 644951.34,5493752.69"/>
    </edge>
    <edge id=":13493753_5" function="internal">
        <lane id=":13493753_5_0" index="0" speed="13.89" length="2.41" shape="644955.74,5493744.52 644955.37,5493745.96 644954.73,5493746.63"/>
    </edge>
    <edge id=":13493753_11" function="internal">
        <lane id=":13493753_11_0" index="0" speed="13.89" length="2.41" shape="644954.73,5493746.63 644953.82,5493746.51 644952.63,5493745.62"/>
    </edge>
    <edge id=":13493753_6" function="internal">
        <lane id=":13493753_6_0" index="0" speed="11.11" length="5.12" shape="644950.55,5493749.48 644951.87,5493748.95 644952.65,5493748.13 644952.91,5493747.02 644952.63,5493745.62"/>
    </edge>
    <edge id=":13493753_7" function="internal">
        <lane id=":13493753_7_0" index="0" speed="11.11" length="10.59" shape="644950.55,5493749.48 644953.50,5493749.17 644955.84,5493749.83 644957.54,5493751.46 644958.63,5493754.08"/>
    </edge>
    <edge id=":13493753_8" function="internal">
        <lane id=":13493753_8_0" index="0" speed="8.33" length="4.82" shape="644950.55,5493749.48 644951.94,5493749.99 644952.54,5493750.69 644952.34,5493751.59 644951.34,5493752.69"/>
    </edge>
    <edge id=":1391319738_0" function="internal">
        <lane id=":1391319738_0_0" index="0" speed="15.28" length="5.51" shape="645527.86,5493482.04 645526.57,5493482.36 645525.63,5493483.12 645525.04,5493484.31 645524.79,5493485.94"/>
    </edge>
    <edge id=":1391319738_1" function="internal">
        <lane id=":1391319738_1_0" index="0" speed="16.67" length="9.57" shape="645527.86,5493482.04 645518.32,5493482.79"/>
    </edge>
    <edge id=":1391319738_2" function="internal">
        <lane id=":1391319738_2_0" index="0" speed="16.67" length="9.63" shape="645527.64,5493478.75 645518.04,5493479.50"/>
    </edge>
    <edge id=":1391319738_3" function="internal">
        <lane id=":1391319738_3_0" index="0" speed="15.28" length="5.15" shape="645521.50,5493485.81 645521.34,5493484.38 645520.77,5493483.40 645519.76,5493482.87 645518.32,5493482.79"/>
    </edge>
    <edge id=":1391319738_4" function="internal">
        <lane id=":1391319738_4_0" index="0" speed="13.89" length="4.82" shape="645521.50,5493485.81 645522.37,5493484.61 645523.21,5493484.23 645524.02,5493484.67 645524.79,5493485.94"/>
    </edge>
    <edge id=":1395333452_0" function="internal">
        <lane id=":1395333452_0_0" index="0" speed="13.89" length="4.82" shape="646073.52,5494465.97 646072.72,5494467.22 646071.90,5494467.65 646071.07,5494467.26 646070.22,5494466.04"/>
    </edge>
    <edge id=":14319137_0" function="internal">
        <lane id=":14319137_0_0" index="0" speed="8.33" length="6.38" shape="644691.62,5493812.58 644691.53,5493810.90 644691.93,5493809.45 644692.83,5493808.25 644694.22,5493807.30"/>
    </edge>
    <edge id=":14319137_1" function="internal">
        <lane id=":14319137_1_0" index="0" speed="8.33" length="2.41" shape="644691.62,5493812.58 644692.20,5493811.21 644692.94,5493810.65"/>
    </edge>
    <edge id=":14319137_4" function="internal">
        <lane id=":14319137_4_0" index="0" speed="8.33" length="2.41" shape="644692.94,5493810.65 644693.82,5493810.91 644694.87,5493811.97"/>
    </edge>
    <edge id=":14319137_2" function="internal">
        <lane id=":14319137_2_0" index="0" speed="8.33" length="2.08" shape="644695.71,5493810.24 644695.26,5493810.55 644694.97,5493810.94 644694.83,5493811.42 644694.87,5493811.97"/>
    </edge>
    <edge id=":14319137_3" function="internal">
        <lane id=":14319137_3_0" index="0" speed="8.33" length="2.41" shape="644695.71,5493810.24 644694.24,5493810.06 644693.50,5493809.52"/>
    </edge>
    <edge id=":14319137_5" function="internal">
        <lane id=":14319137_5_0" index="0" speed="8.33" length="2.41" shape="644693.50,5493809.52 644693.49,5493808.59 644694.22,5493807.30"/>
    </edge>
    <edge id=":14319161_0" function="internal">
        <lane id=":14319161_0_0" index="0" speed="13.89" length="7.22" shape="644635.12,5493025.67 644634.04,5493024.04 644632.70,5493022.97 644631.10,5493022.47 644629.24,5493022.54"/>
    </edge>
    <edge id=":14319161_1" function="internal">
        <lane id=":14319161_1_0" index="0" speed="13.89" length="11.02" shape="644635.12,5493025.67 644633.75,5493022.86 644632.78,5493020.69 644631.91,5493018.47 644630.87,5493015.52"/>
    </edge>
    <edge id=":14319161_2" function="internal">
        <lane id=":14319161_2_0" index="0" speed="13.89" length="7.45" shape="644635.12,5493025.67 644634.11,5493022.59 644634.44,5493020.12 644635.59,5493018.85"/>
    </edge>
    <edge id=":14319161_16" function="internal">
        <lane id=":14319161_16_0" index="0" speed="13.89" length="4.02" shape="644635.59,5493018.85 644636.11,5493018.27 644639.12,5493017.04"/>
    </edge>
    <edge id=":14319161_3" function="internal">
        <lane id=":14319161_3_0" index="0" speed="13.89" length="2.41" shape="644635.12,5493025.67 644635.31,5493024.20 644635.87,5493023.46"/>
    </edge>
    <edge id=":14319161_17" function="internal">
        <lane id=":14319161_17_0" index="0" speed="13.89" length="2.41" shape="644635.87,5493023.46 644636.79,5493023.47 644638.08,5493024.21"/>
    </edge>
    <edge id=":14319161_4" function="internal">
        <lane id=":14319161_4_0" index="0" speed="13.89" length="5.28" shape="644639.92,5493020.25 644638.54,5493020.81 644637.77,5493021.66 644637.62,5493022.79 644638.08,5493024.21"/>
    </edge>
    <edge id=":14319161_5" function="internal">
        <lane id=":14319161_5_0" index="0" speed="13.89" length="10.93" shape="644639.92,5493020.25 644636.89,5493020.99 644634.60,5493021.52 644632.30,5493021.98 644629.24,5493022.54"/>
    </edge>
    <edge id=":14319161_6" function="internal">
        <lane id=":14319161_6_0" index="0" speed="13.89" length="11.43" shape="644639.92,5493020.25 644636.79,5493020.59 644634.24,5493019.91 644632.27,5493018.22 644630.87,5493015.52"/>
    </edge>
    <edge id=":14319161_7" function="internal">
        <lane id=":14319161_7_0" index="0" speed="13.89" length="4.82" shape="644639.92,5493020.25 644638.52,5493019.75 644637.92,5493019.04 644638.12,5493018.14 644639.12,5493017.04"/>
    </edge>
    <edge id=":14319161_8" function="internal">
        <lane id=":14319161_8_0" index="0" speed="13.89" length="6.44" shape="644633.99,5493014.44 644634.77,5493015.95 644635.89,5493016.88 644637.34,5493017.25 644639.12,5493017.04"/>
    </edge>
    <edge id=":14319161_9" function="internal">
        <lane id=":14319161_9_0" index="0" speed="13.89" length="10.60" shape="644633.99,5493014.44 644635.01,5493017.33 644635.82,5493019.42 644636.74,5493021.46 644638.08,5493024.21"/>
    </edge>
    <edge id=":14319161_10" function="internal">
        <lane id=":14319161_10_0" index="0" speed="13.89" length="7.08" shape="644633.99,5493014.44 644634.57,5493017.51 644633.98,5493019.88 644632.88,5493020.91"/>
    </edge>
    <edge id=":14319161_18" function="internal">
        <lane id=":14319161_18_0" index="0" speed="13.89" length="4.06" shape="644632.88,5493020.91 644632.20,5493021.56 644629.24,5493022.54"/>
    </edge>
    <edge id=":14319161_11" function="internal">
        <lane id=":14319161_11_0" index="0" speed="13.89" length="2.41" shape="644633.99,5493014.44 644633.61,5493015.88 644632.97,5493016.54"/>
    </edge>
    <edge id=":14319161_19" function="internal">
        <lane id=":14319161_19_0" index="0" speed="13.89" length="2.41" shape="644632.97,5493016.54 644632.05,5493016.42 644630.87,5493015.52"/>
    </edge>
    <edge id=":14319161_12" function="internal">
        <lane id=":14319161_12_0" index="0" speed="13.89" length="5.19" shape="644628.65,5493019.29 644630.03,5493018.83 644630.86,5493018.05 644631.14,5493016.95 644630.87,5493015.52"/>
    </edge>
    <edge id=":14319161_13" function="internal">
        <lane id=":14319161_13_0" index="0" speed="13.89" length="10.71" shape="644628.65,5493019.29 644631.68,5493018.74 644633.91,5493018.29 644636.13,5493017.78 644639.12,5493017.04"/>
    </edge>
    <edge id=":14319161_14" function="internal">
        <lane id=":14319161_14_0" index="0" speed="13.89" length="11.51" shape="644628.65,5493019.29 644631.65,5493019.17 644634.22,5493019.95 644636.37,5493021.63 644638.08,5493024.21"/>
    </edge>
    <edge id=":14319161_15" function="internal">
        <lane id=":14319161_15_0" index="0" speed="13.89" length="4.82" shape="644628.65,5493019.29 644630.02,5493019.89 644630.57,5493020.63 644630.31,5493021.51 644629.24,5493022.54"/>
    </edge>
    <edge id=":14319163_0" function="internal">
        <lane id=":14319163_0_0" index="0" speed="13.89" length="5.10" shape="644800.78,5493317.91 644800.10,5493316.67 644799.19,5493315.99 644798.06,5493315.86 644796.71,5493316.28"/>
    </edge>
    <edge id=":14319163_1" function="internal">
        <lane id=":14319163_1_0" index="0" speed="13.89" length="9.73" shape="644800.78,5493317.91 644796.65,5493309.10"/>
    </edge>
    <edge id=":14319163_2" function="internal">
        <lane id=":14319163_2_0" index="0" speed="13.89" length="2.41" shape="644800.78,5493317.91 644801.11,5493316.46 644801.74,5493315.78"/>
    </edge>
    <edge id=":14319163_9" function="internal">
        <lane id=":14319163_9_0" index="0" speed="13.89" length="2.41" shape="644801.74,5493315.78 644802.66,5493315.87 644803.87,5493316.74"/>
    </edge>
    <edge id=":14319163_3" function="internal">
        <lane id=":14319163_3_0" index="0" speed="13.89" length="10.25" shape="644799.52,5493307.47 644800.99,5493310.10 644801.95,5493311.98 644802.79,5493313.93 644803.87,5493316.74"/>
    </edge>
    <edge id=":14319163_4" function="internal">
        <lane id=":14319163_4_0" index="0" speed="13.89" length="7.74" shape="644799.52,5493307.47 644800.59,5493310.23 644800.48,5493312.61 644799.19,5493314.63"/>
    </edge>
    <edge id=":14319163_10" function="internal">
        <lane id=":14319163_10_0" index="0" speed="13.89" length="2.97" shape="644799.19,5493314.63 644796.71,5493316.28"/>
    </edge>
    <edge id=":14319163_5" function="internal">
        <lane id=":14319163_5_0" index="0" speed="13.89" length="2.41" shape="644799.52,5493307.47 644799.41,5493308.95 644798.90,5493309.72"/>
    </edge>
    <edge id=":14319163_11" function="internal">
        <lane id=":14319163_11_0" index="0" speed="13.89" length="2.41" shape="644798.90,5493309.72 644797.98,5493309.77 644796.65,5493309.10"/>
    </edge>
    <edge id=":14319163_6" function="internal">
        <lane id=":14319163_6_0" index="0" speed="13.89" length="5.12" shape="644795.29,5493313.30 644796.48,5493312.51 644797.10,5493311.55 644797.16,5493310.41 644796.65,5493309.10"/>
    </edge>
    <edge id=":14319163_7" function="internal">
        <lane id=":14319163_7_0" index="0" speed="13.89" length="10.75" shape="644795.29,5493313.30 644798.13,5493312.41 644800.51,5493312.69 644802.42,5493314.13 644803.87,5493316.74"/>
    </edge>
    <edge id=":14319163_8" function="internal">
        <lane id=":14319163_8_0" index="0" speed="13.89" length="4.82" shape="644795.29,5493313.30 644796.76,5493313.51 644797.49,5493314.08 644797.47,5493315.00 644796.71,5493316.28"/>
    </edge>
    <edge id=":15159498_0" function="internal">
        <lane id=":15159498_0_0" index="0" speed="15.28" length="5.08" shape="645132.66,5493529.49 645132.17,5493528.18 645131.38,5493527.36 645130.30,5493527.04 645128.90,5493527.22"/>
    </edge>
    <edge id=":15159498_1" function="internal">
        <lane id=":15159498_1_0" index="0" speed="13.89" length="4.82" shape="645132.66,5493529.49 645133.21,5493528.11 645133.93,5493527.54 645134.82,5493527.77 645135.88,5493528.81"/>
    </edge>
    <edge id=":15159498_2" function="internal">
        <lane id=":15159498_2_0" index="0" speed="15.28" length="5.20" shape="645138.17,5493524.84 645136.91,5493525.35 645136.11,5493526.18 645135.77,5493527.33 645135.88,5493528.81"/>
    </edge>
    <edge id=":15159498_3" function="internal">
        <lane id=":15159498_3_0" index="0" speed="16.67" length="9.57" shape="645138.17,5493524.84 645128.90,5493527.22"/>
    </edge>
    <edge id=":15159498_4" function="internal">
        <lane id=":15159498_4_0" index="0" speed="16.67" length="9.72" shape="645137.42,5493521.63 645128.01,5493524.05"/>
    </edge>
    <edge id=":15159501_0" function="internal">
        <lane id=":15159501_0_0" index="0" speed="19.44" length="0.85" shape="645889.04,5493412.65 645888.31,5493413.07"/>
    </edge>
    <edge id=":15159501_1" function="internal">
        <lane id=":15159501_1_0" index="0" speed="19.44" length="0.28" shape="645887.14,5493409.95 645886.90,5493410.09"/>
    </edge>
    <edge id=":15160692_0" function="internal">
        <lane id=":15160692_0_0" index="0" speed="22.22" length="0.10" shape="646709.77,5492680.10 646709.77,5492680.10"/>
    </edge>
    <edge id=":15420060_0" function="internal">
        <lane id=":15420060_0_0" index="0" speed="13.89" length="4.82" shape="645506.98,5494354.34 645506.23,5494355.63 645505.44,5494356.09 645504.59,5494355.73 645503.69,5494354.54"/>
    </edge>
    <edge id=":15420062_0" function="internal">
        <lane id=":15420062_0_0" index="0" speed="13.89" length="5.02" shape="645499.17,5494090.04 645497.79,5494090.12 645496.78,5494090.63 645496.13,5494091.56 645495.85,5494092.91"/>
    </edge>
    <edge id=":15420062_1" function="internal">
        <lane id=":15420062_1_0" index="0" speed="13.89" length="9.02" shape="645499.17,5494090.04 645490.38,5494088.02"/>
    </edge>
    <edge id=":15420062_2" function="internal">
        <lane id=":15420062_2_0" index="0" speed="13.89" length="2.41" shape="645499.17,5494090.04 645498.00,5494089.12 645497.65,5494088.26"/>
    </edge>
    <edge id=":15420062_9" function="internal">
        <lane id=":15420062_9_0" index="0" speed="13.89" length="2.41" shape="645497.65,5494088.26 645498.13,5494087.47 645499.43,5494086.75"/>
    </edge>
    <edge id=":15420062_3" function="internal">
        <lane id=":15420062_3_0" index="0" speed="13.89" length="7.94" shape="645491.69,5494084.99 645499.43,5494086.75"/>
    </edge>
    <edge id=":15420062_4" function="internal">
        <lane id=":15420062_4_0" index="0" speed="13.89" length="5.80" shape="645491.69,5494084.99 645493.65,5494086.22 645495.00,5494087.95 645495.40,5494089.17"/>
    </edge>
    <edge id=":15420062_10" function="internal">
        <lane id=":15420062_10_0" index="0" speed="13.89" length="3.79" shape="645495.40,5494089.17 645495.73,5494090.18 645495.85,5494092.91"/>
    </edge>
    <edge id=":15420062_5" function="internal">
        <lane id=":15420062_5_0" index="0" speed="13.89" length="2.41" shape="645491.69,5494084.99 645492.50,5494086.24 645492.55,5494087.16"/>
    </edge>
    <edge id=":15420062_11" function="internal">
        <lane id=":15420062_11_0" index="0" speed="13.89" length="2.41" shape="645492.55,5494087.16 645491.84,5494087.75 645490.38,5494088.02"/>
    </edge>
    <edge id=":15420062_6" function="internal">
        <lane id=":15420062_6_0" index="0" speed="13.89" length="5.52" shape="645492.56,5494092.70 645492.51,5494091.04 645492.13,5494089.71 645491.42,5494088.70 645490.38,5494088.02"/>
    </edge>
    <edge id=":15420062_7" function="internal">
        <lane id=":15420062_7_0" index="0" speed="13.89" length="10.40" shape="645492.56,5494092.70 645493.14,5494089.90 645494.48,5494087.98 645496.58,5494086.93 645499.43,5494086.75"/>
    </edge>
    <edge id=":15420062_8" function="internal">