<?xml version='1.0' encoding='UTF-8'?>
<!-- generated on Wed Apr 28 17:25:49 2021 by Eclipse SUMO netconvert Version 1.7.0
<configuration xmlns:xsi="http://www.w3.org/2001/XMLSchema-instance" xsi:noNamespaceSchemaLocation="http://sumo.dlr.de/xsd/netconvertConfiguration.xsd">

    <input>
        <type-files value="/home/yoshida/carla/Co-Simulation/Sumo/util/data/opendrive_netconvert.typ.xml"/>
        <opendrive-files value="/home/yoshida/carla/Import//auto_import/itabashi-junk/map.xodr"/>
    </input>

    <output>
        <output-file value="/tmp/tmpeguz5jtw/map.net.xml"/>
        <output.original-names value="true"/>
    </output>

    <processing>
        <geometry.remove value="true"/>
        <geometry.min-radius.fix value="true"/>
        <geometry.max-grade.fix value="false"/>
    </processing>

    <tls_building>
        <tls.discard-loaded value="true"/>
        <tls.left-green.time value="0"/>
    </tls_building>

    <junctions>
        <rectangular-lane-cut value="true"/>
    </junctions>

    <formats>
        <opendrive.import-all-lanes value="true"/>
        <opendrive.curve-resolution value="1"/>
    </formats>

    <report>
        <aggregate-warnings value="5"/>
    </report>

</configuration>
-->
<net xmlns:xsi="http://www.w3.org/2001/XMLSchema-instance" version="1.6" junctionCornerDetail="5" rectangularLaneCut="true" limitTurnSpeed="5.50" xsi:noNamespaceSchemaLocation="http://sumo.dlr.de/xsd/net_file.xsd">
  <location netOffset="-613.84,-449.86" convBoundary="0.00,0.00,1339.12,1510.92" origBoundary="0.000000,0.000000,0.000000,0.000000" projParameter="+proj=tmerc +lat_0=35.6659574 +lon_0=139.759849 +x_0=0 +y_0=0 +ellps=GRS80 +units=m +no_defs"/>
  <type id="bidirectional" priority="1" speed="1.39" disallow="pedestrian tram rail_urban rail rail_electric rail_fast ship" width="3.65"/>
  <type id="biking" priority="-1" speed="5.56" allow="bicycle" width="1.50"/>
  <type id="border" priority="0" speed="1.39" disallow="all" discard="1" width="0.10"/>
  <type id="driving" priority="1" speed="13.89" disallow="pedestrian tram rail_urban rail rail_electric rail_fast ship" width="3.65"/>
  <type id="entry" priority="1" speed="22.22" disallow="pedestrian tram rail_urban rail rail_electric rail_fast ship" width="3.65"/>
  <type id="exit" priority="1" speed="22.22" disallow="pedestrian tram rail_urban rail rail_electric rail_fast ship" width="3.65"/>
  <type id="median" priority="0" speed="1.39" disallow="all" discard="1" width="0.10"/>
  <type id="mwyEntry" priority="1" speed="22.22" allow="private emergency authority army vip passenger hov taxi bus coach delivery truck trailer motorcycle evehicle custom1 custom2" width="3.65"/>
  <type id="mwyExit" priority="1" speed="22.22" allow="private emergency authority army vip passenger hov taxi bus coach delivery truck trailer motorcycle evehicle custom1 custom2" width="3.65"/>
  <type id="none" priority="0" speed="1.39" disallow="all" discard="1" width="1.00"/>
  <type id="offRamp" priority="1" speed="22.22" allow="private emergency authority army vip passenger hov taxi bus coach delivery truck trailer motorcycle evehicle custom1 custom2" width="3.65"/>
  <type id="onRamp" priority="1" speed="22.22" allow="private emergency authority army vip passenger hov taxi bus coach delivery truck trailer motorcycle evehicle custom1 custom2" width="3.65"/>
  <type id="parking" priority="1" speed="1.39" disallow="pedestrian tram rail_urban rail rail_electric rail_fast ship" width="2.50"/>
  <type id="rail" priority="3" speed="33.33" allow="rail_urban rail rail_electric rail_fast" width="3.65"/>
  <type id="restricted" priority="0" speed="13.89" disallow="all" width="3.65"/>
  <type id="roadWorks" priority="0" speed="1.39" allow="authority" width="3.65"/>
  <type id="shoulder" priority="0" speed="1.39" disallow="all" discard="1" width="1.00"/>
  <type id="sidewalk" priority="-2" speed="2.78" allow="pedestrian" width="2.50"/>
  <type id="special1" priority="1" speed="22.22" allow="custom1" discard="1" width="3.65"/>
  <type id="special2" priority="1" speed="22.22" allow="custom2" discard="1" width="3.65"/>
  <type id="special3" priority="1" speed="22.22" allow="custom1 custom2" discard="1" width="3.65"/>
  <type id="stop" priority="1" speed="13.89" disallow="pedestrian tram rail_urban rail rail_electric rail_fast ship" width="3.65"/>
  <type id="tram" priority="2" speed="13.89" allow="tram" width="3.65"/>
  <edge id=":1166_0" function="internal">
    <lane id=":1166_0_0" index="0" disallow="pedestrian tram rail_urban rail rail_electric rail_fast ship" speed="4.08" length="5.84" width="4.00" shape="1175.55,1348.08 1176.44,1349.65 1176.44,1350.77 1175.55,1351.44 1173.76,1351.66">
      <param key="origId" value="1167_-1"/>
    </lane>
  </edge>
  <edge id=":1180_0" function="internal">
    <lane id=":1180_0_0" index="0" disallow="pedestrian tram rail_urban rail rail_electric rail_fast ship" speed="4.08" length="5.84" width="4.00" shape="1207.74,852.77 1209.54,852.81 1210.50,853.39 1210.61,854.50 1209.88,856.15">
      <param key="origId" value="1181_-1"/>
    </lane>
  </edge>
  <edge id=":1182_0" function="internal">
    <lane id=":1182_0_0" index="0" disallow="pedestrian tram rail_urban rail rail_electric rail_fast ship" speed="4.08" length="5.84" width="4.00" shape="1081.92,831.13 1083.71,831.35 1084.60,832.02 1084.61,833.13 1083.72,834.70">
      <param key="origId" value="1183_-1"/>
    </lane>
  </edge>
  <edge id=":1224_0" function="internal">
    <lane id=":1224_0_0" index="0" disallow="pedestrian tram rail_urban rail rail_electric rail_fast ship" speed="4.08" length="5.84" width="4.00" shape="1105.89,877.12 1107.67,877.39 1108.55,878.09 1108.51,879.21 1107.58,880.74">
      <param key="origId" value="1225_-1"/>
    </lane>
  </edge>
  <edge id=":1230_0" function="internal">
    <lane id=":1230_0_0" index="0" disallow="pedestrian tram rail_urban rail rail_electric rail_fast ship" speed="4.08" length="5.84" width="4.00" shape="956.92,1117.78 957.11,1115.99 957.77,1115.08 958.89,1115.06 960.47,1115.93">
      <param key="origId" value="1231_-1"/>
    </lane>
  </edge>
  <edge id=":1232_0" function="internal">
    <lane id=":1232_0_0" index="0" disallow="pedestrian tram rail_urban rail rail_electric rail_fast ship" speed="4.08" length="5.84" width="4.00" shape="536.58,1201.27 534.92,1201.96 533.81,1201.81 533.26,1200.84 533.26,1199.04">
      <param key="origId" value="1233_-1"/>
    </lane>
  </edge>
  <edge id=":1234_0" function="internal">
    <lane id=":1234_0_0" index="0" disallow="pedestrian tram rail_urban rail rail_electric rail_fast ship" speed="4.08" length="5.84" width="4.00" shape="758.61,1247.41 758.40,1249.20 757.73,1250.10 756.62,1250.11 755.04,1249.23">
      <param key="origId" value="1235_-1"/>
    </lane>
  </edge>
  <edge id=":1252_0" function="internal">
    <lane id=":1252_0_0" index="0" disallow="pedestrian tram rail_urban rail rail_electric rail_fast ship" speed="4.08" length="5.84" width="4.00" shape="743.21,1187.45 742.98,1189.24 742.31,1190.13 741.19,1190.13 739.63,1189.23">
      <param key="origId" value="1253_-1"/>
    </lane>
  </edge>
  <edge id=":1256_0" function="internal">
    <lane id=":1256_0_0" index="0" disallow="pedestrian tram rail_urban rail rail_electric rail_fast ship" speed="4.08" length="5.84" width="4.00" shape="730.49,1194.41 730.25,1196.20 729.57,1197.09 728.45,1197.08 726.89,1196.16">
      <param key="origId" value="1257_-1"/>
    </lane>
  </edge>
  <edge id=":1266_0" function="internal">
    <lane id=":1266_0_0" index="0" disallow="pedestrian tram rail_urban rail rail_electric rail_fast ship" speed="4.08" length="5.84" width="4.00" shape="852.64,1207.94 850.85,1207.77 849.93,1207.13 849.90,1206.01 850.74,1204.42">
      <param key="origId" value="1267_-1"/>
    </lane>
  </edge>
  <edge id=":1268_0" function="internal">
    <lane id=":1268_0_0" index="0" disallow="pedestrian tram rail_urban rail rail_electric rail_fast ship" speed="4.08" length="5.84" width="4.00" shape="808.26,1121.33 806.47,1121.12 805.57,1120.45 805.56,1119.33 806.45,1117.77">
      <param key="origId" value="1269_-1"/>
    </lane>
  </edge>
  <edge id=":1270_0" function="internal">
    <lane id=":1270_0_0" index="0" disallow="pedestrian tram rail_urban rail rail_electric rail_fast ship" speed="4.08" length="5.84" width="4.00" shape="798.36,1102.03 796.57,1101.84 795.66,1101.19 795.64,1100.07 796.50,1098.49">
      <param key="origId" value="1271_-1"/>
    </lane>
  </edge>
  <edge id=":1272_0" function="internal">
    <lane id=":1272_0_0" index="0" disallow="pedestrian tram rail_urban rail rail_electric rail_fast ship" speed="4.08" length="5.84" width="4.00" shape="836.41,1175.28 834.62,1175.15 833.69,1174.53 833.62,1173.41 834.43,1171.80">
      <param key="origId" value="1273_-1"/>
    </lane>
  </edge>
  <edge id=":1274_0" function="internal">
    <lane id=":1274_0_0" index="0" disallow="pedestrian tram rail_urban rail rail_electric rail_fast ship" speed="4.08" length="5.84" width="4.00" shape="828.08,1158.92 826.29,1158.70 825.40,1158.03 825.40,1156.91 826.29,1155.34">
      <param key="origId" value="1275_-1"/>
    </lane>
  </edge>
  <edge id=":1276_0" function="internal">
    <lane id=":1276_0_0" index="0" disallow="pedestrian tram rail_urban rail rail_electric rail_fast ship" speed="4.08" length="5.84" width="4.00" shape="845.09,1153.66 846.88,1153.90 847.77,1154.57 847.76,1155.69 846.85,1157.25">
      <param key="origId" value="1277_-1"/>
    </lane>
  </edge>
  <edge id=":1278_0" function="internal">
    <lane id=":1278_0_0" index="0" disallow="pedestrian tram rail_urban rail rail_electric rail_fast ship" speed="4.08" length="5.84" width="4.00" shape="827.59,1242.89 829.37,1243.14 830.26,1243.82 830.25,1244.94 829.33,1246.49">
      <param key="origId" value="1279_-1"/>
    </lane>
  </edge>
  <edge id=":1280_0" function="internal">
    <lane id=":1280_0_0" index="0" disallow="pedestrian tram rail_urban rail rail_electric rail_fast ship" speed="4.08" length="5.84" width="4.00" shape="792.03,1088.93 790.24,1088.74 789.33,1088.08 789.31,1086.96 790.18,1085.38">
      <param key="origId" value="1281_-1"/>
    </lane>
  </edge>
  <edge id=":1282_0" function="internal">
    <lane id=":1282_0_0" index="0" disallow="pedestrian tram rail_urban rail rail_electric rail_fast ship" speed="4.08" length="5.84" width="4.00" shape="860.35,1182.34 862.14,1182.52 863.05,1183.16 863.08,1184.28 862.23,1185.87">
      <param key="origId" value="1283_-1"/>
    </lane>
  </edge>
  <edge id=":1284_0" function="internal">
    <lane id=":1284_0_0" index="0" disallow="pedestrian tram rail_urban rail rail_electric rail_fast ship" speed="4.08" length="5.84" width="4.00" shape="812.20,1065.28 811.93,1067.06 811.24,1067.93 810.12,1067.91 808.58,1066.97">
      <param key="origId" value="1285_-1"/>
    </lane>
  </edge>
  <edge id=":1286_0" function="internal">
    <lane id=":1286_0_0" index="0" disallow="pedestrian tram rail_urban rail rail_electric rail_fast ship" speed="4.45" length="7.49" width="4.00" shape="830.31,1131.53 832.29,1130.35 833.72,1130.32 834.61,1131.45 834.94,1133.73">
      <param key="origId" value="1287_-1"/>
    </lane>
  </edge>
  <edge id=":1288_0" function="internal">
    <lane id=":1288_0_0" index="0" disallow="pedestrian tram rail_urban rail rail_electric rail_fast ship" speed="4.08" length="5.84" width="4.00" shape="862.39,1266.21 862.18,1268.00 861.52,1268.91 860.40,1268.92 858.83,1268.04">
      <param key="origId" value="1289_-1"/>
    </lane>
  </edge>
  <edge id=":1290_0" function="internal">
    <lane id=":1290_0_0" index="0" disallow="pedestrian tram rail_urban rail rail_electric rail_fast ship" speed="4.08" length="5.84" width="4.00" shape="755.76,1017.42 753.98,1017.09 753.13,1016.37 753.19,1015.26 754.17,1013.75">
      <param key="origId" value="1291_-1"/>
    </lane>
  </edge>
  <edge id=":1292_0" function="internal">
    <lane id=":1292_0_0" index="0" disallow="pedestrian tram rail_urban rail rail_electric rail_fast ship" speed="4.08" length="5.84" width="4.00" shape="726.35,959.55 724.56,959.34 723.66,958.67 723.65,957.56 724.54,955.98">
      <param key="origId" value="1293_-1"/>
    </lane>
  </edge>
  <edge id=":1294_0" function="internal">
    <lane id=":1294_0_0" index="0" disallow="pedestrian tram rail_urban rail rail_electric rail_fast ship" speed="4.08" length="5.84" width="4.00" shape="772.49,1049.67 770.70,1049.52 769.78,1048.89 769.73,1047.77 770.56,1046.17">
      <param key="origId" value="1295_-1"/>
    </lane>
  </edge>
  <edge id=":1296_0" function="internal">
    <lane id=":1296_0_0" index="0" disallow="pedestrian tram rail_urban rail rail_electric rail_fast ship" speed="4.08" length="5.84" width="4.00" shape="733.88,934.92 735.68,935.04 736.61,935.66 736.68,936.77 735.87,938.39">
      <param key="origId" value="1297_-1"/>
    </lane>
  </edge>
  <edge id=":1298_0" function="internal">
    <lane id=":1298_0_0" index="0" disallow="pedestrian tram rail_urban rail rail_electric rail_fast ship" speed="4.08" length="5.84" width="4.00" shape="763.52,1031.61 761.72,1031.46 760.80,1030.83 760.75,1029.72 761.57,1028.11">
      <param key="origId" value="1299_-1"/>
    </lane>
  </edge>
  <edge id=":333_0" function="internal">
    <lane id=":333_0_0" index="0" disallow="pedestrian tram rail_urban rail rail_electric rail_fast ship" speed="13.89" length="11.86" width="4.00" shape="841.92,1306.84 836.59,1296.25">
      <param key="origId" value="524_-1"/>
    </lane>
  </edge>
  <edge id=":333_1" function="internal">
    <lane id=":333_1_0" index="0" disallow="pedestrian tram rail_urban rail rail_electric rail_fast ship" speed="7.77" length="8.50" width="4.00" shape="841.92,1306.84 840.25,1302.73 839.83,1299.41 840.06,1298.73">
      <param key="origId" value="523_-1"/>
    </lane>
  </edge>
  <edge id=":333_4" function="internal">
    <lane id=":333_4_0" index="0" disallow="pedestrian tram rail_urban rail rail_electric rail_fast ship" speed="7.77" length="4.68" width="4.00" shape="840.06,1298.73 840.67,1296.88 842.77,1295.14">
      <param key="origId" value="523_-1"/>
    </lane>
  </edge>
  <edge id=":333_2" function="internal">
    <lane id=":333_2_0" index="0" disallow="pedestrian tram rail_urban rail rail_electric rail_fast ship" speed="5.80" length="6.63" width="4.00" shape="832.03,1300.52 834.32,1299.24 835.84,1298.10 836.60,1297.11 836.59,1296.25">
      <param key="origId" value="522_-1"/>
    </lane>
  </edge>
  <edge id=":333_3" function="internal">
    <lane id=":333_3_0" index="0" disallow="pedestrian tram rail_urban rail rail_electric rail_fast ship" speed="13.89" length="12.01" width="4.00" shape="832.03,1300.52 842.77,1295.14">
      <param key="origId" value="521_-1"/>
    </lane>
  </edge>
  <edge id=":334_0" function="internal">
    <lane id=":334_0_0" index="0" disallow="pedestrian tram rail_urban rail rail_electric rail_fast ship" speed="13.89" length="21.97" width="4.00" shape="662.54,948.56 653.42,928.58">
      <param key="origId" value="526_-1"/>
    </lane>
  </edge>
  <edge id=":334_1" function="internal">
    <lane id=":334_1_0" index="0" disallow="pedestrian tram rail_urban rail rail_electric rail_fast ship" speed="10.55" length="22.57" width="4.00" shape="662.54,948.56 660.22,941.99 659.91,936.42 661.62,931.85 665.33,928.29">
      <param key="origId" value="525_-1"/>
    </lane>
  </edge>
  <edge id=":335_0" function="internal">
    <lane id=":335_0_0" index="0" disallow="pedestrian tram rail_urban rail rail_electric rail_fast ship" speed="13.89" length="11.97" width="4.00" shape="751.03,1169.62 756.49,1180.27">
      <param key="origId" value="528_-1"/>
    </lane>
  </edge>
  <edge id=":335_1" function="internal">
    <lane id=":335_1_0" index="0" disallow="pedestrian tram rail_urban rail rail_electric rail_fast ship" speed="6.82" length="9.72" width="4.00" shape="751.03,1169.62 751.87,1172.14 751.71,1174.33 750.53,1176.19 748.35,1177.72">
      <param key="origId" value="527_-1"/>
    </lane>
  </edge>
  <edge id=":336_0" function="internal">
    <lane id=":336_0_0" index="0" disallow="pedestrian tram rail_urban rail rail_electric rail_fast ship" speed="5.84" length="6.72" width="4.00" shape="819.88,1304.51 820.60,1305.08 821.88,1305.10 823.71,1304.58 826.10,1303.51">
      <param key="origId" value="530_-1"/>
    </lane>
  </edge>
  <edge id=":336_1" function="internal">
    <lane id=":336_1_0" index="0" disallow="pedestrian tram rail_urban rail rail_electric rail_fast ship" speed="13.89" length="7.98" width="4.00" shape="819.88,1304.51 823.58,1311.58">
      <param key="origId" value="529_-1"/>
    </lane>
  </edge>
  <edge id=":336_2" function="internal">
    <lane id=":336_2_0" index="0" disallow="pedestrian tram rail_urban rail rail_electric rail_fast ship" speed="13.89" length="27.22" width="4.00" shape="801.70,1315.58 826.10,1303.51">
      <param key="origId" value="532_-1"/>
    </lane>
  </edge>
  <edge id=":336_3" function="internal">
    <lane id=":336_3_0" index="0" disallow="pedestrian tram rail_urban rail rail_electric rail_fast ship" speed="10.30" length="19.78" width="4.00" shape="801.70,1315.58 810.23,1311.82 816.71,1309.90 820.41,1309.83">
      <param key="origId" value="531_-1"/>
    </lane>
  </edge>
  <edge id=":336_4" function="internal">
    <lane id=":336_4_0" index="0" disallow="pedestrian tram rail_urban rail rail_electric rail_fast ship" speed="10.30" length="3.75" width="4.00" shape="820.41,1309.83 821.16,1309.82 823.58,1311.58">
      <param key="origId" value="531_-1"/>
    </lane>
  </edge>
  <edge id=":337_0" function="internal">
    <lane id=":337_0_0" index="0" disallow="pedestrian tram rail_urban rail rail_electric rail_fast ship" speed="13.89" length="17.80" width="4.00" shape="1058.21,1203.99 1049.79,1188.31">
      <param key="origId" value="539_-1"/>
    </lane>
  </edge>
  <edge id=":337_1" function="internal">
    <lane id=":337_1_0" index="0" disallow="pedestrian tram rail_urban rail rail_electric rail_fast ship" speed="9.93" length="8.07" width="4.00" shape="1058.21,1203.99 1056.19,1198.30 1056.33,1196.27">
      <param key="origId" value="538_-1"/>
    </lane>
  </edge>
  <edge id=":337_7" function="internal">
    <lane id=":337_7_0" index="0" disallow="pedestrian tram rail_urban rail rail_electric rail_fast ship" speed="9.93" length="14.35" width="4.00" shape="1056.33,1196.27 1056.55,1193.30 1059.30,1189.01 1064.45,1185.41">
      <param key="origId" value="538_-1"/>
    </lane>
  </edge>
  <edge id=":337_2" function="internal">
    <lane id=":337_2_0" index="0" disallow="pedestrian tram rail_urban rail rail_electric rail_fast ship" speed="7.53" length="12.12" width="4.00" shape="1053.34,1186.47 1054.74,1187.77 1057.06,1188.03 1060.30,1187.25 1064.45,1185.41">
      <param key="origId" value="537_-1"/>
    </lane>
  </edge>
  <edge id=":337_3" function="internal">
    <lane id=":337_3_0" index="0" disallow="pedestrian tram rail_urban rail rail_electric rail_fast ship" speed="13.89" length="17.76" width="4.00" shape="1053.34,1186.47 1061.74,1202.11">
      <param key="origId" value="536_-1"/>
    </lane>
  </edge>
  <edge id=":337_4" function="internal">
    <lane id=":337_4_0" index="0" disallow="pedestrian tram rail_urban rail rail_electric rail_fast ship" speed="8.58" length="16.43" width="4.00" shape="1038.15,1198.61 1043.94,1195.46 1047.81,1192.69 1049.76,1190.31 1049.79,1188.31">
      <param key="origId" value="535_-1"/>
    </lane>
  </edge>
  <edge id=":337_5" function="internal">
    <lane id=":337_5_0" index="0" disallow="pedestrian tram rail_urban rail rail_electric rail_fast ship" speed="13.89" length="29.43" width="4.00" shape="1038.15,1198.61 1064.45,1185.41">
      <param key="origId" value="534_-1"/>
    </lane>
  </edge>
  <edge id=":337_6" function="internal">
    <lane id=":337_6_0" index="0" disallow="pedestrian tram rail_urban rail rail_electric rail_fast ship" speed="10.99" length="26.82" width="4.00" shape="1038.15,1198.61 1046.07,1195.63 1052.64,1195.23 1057.87,1197.39 1061.74,1202.11">
      <param key="origId" value="533_-1"/>
    </lane>
  </edge>
  <edge id=":338_0" function="internal">
    <lane id=":338_0_0" index="0" disallow="pedestrian tram rail_urban rail rail_electric rail_fast ship" speed="13.89" length="13.50" width="4.00" shape="866.70,838.44 860.40,826.50">
      <param key="origId" value="541_-1"/>
    </lane>
  </edge>
  <edge id=":338_1" function="internal">
    <lane id=":338_1_0" index="0" disallow="pedestrian tram rail_urban rail rail_electric rail_fast ship" speed="8.67" length="16.58" width="4.00" shape="866.70,838.44 865.25,834.15 865.52,830.42 867.52,827.25 871.25,824.63">
      <param key="origId" value="540_-1"/>
    </lane>
  </edge>
  <edge id=":338_2" function="internal">
    <lane id=":338_2_0" index="0" disallow="pedestrian tram rail_urban rail rail_electric rail_fast ship" speed="6.38" length="8.13" width="4.00" shape="863.89,824.55 864.97,825.67 866.56,826.06 868.65,825.71 871.25,824.63">
      <param key="origId" value="547_-1"/>
    </lane>
  </edge>
  <edge id=":338_3" function="internal">
    <lane id=":338_3_0" index="0" disallow="pedestrian tram rail_urban rail rail_electric rail_fast ship" speed="13.89" length="13.66" width="4.00" shape="863.89,824.55 870.27,836.62">
      <param key="origId" value="546_-1"/>
    </lane>
  </edge>
  <edge id=":338_4" function="internal">
    <lane id=":338_4_0" index="0" disallow="pedestrian tram rail_urban rail rail_electric rail_fast ship" speed="7.37" length="12.13" width="4.00" shape="849.15,831.06 860.40,826.50">
      <param key="origId" value="545_-1"/>
    </lane>
  </edge>
  <edge id=":338_5" function="internal">
    <lane id=":338_5_0" index="0" disallow="pedestrian tram rail_urban rail rail_electric rail_fast ship" speed="13.89" length="22.65" width="4.00" shape="849.15,831.06 869.43,821.07">
      <param key="origId" value="544_-1"/>
    </lane>
    <lane id=":338_5_1" index="1" disallow="pedestrian tram rail_urban rail rail_electric rail_fast ship" speed="13.89" length="22.65" width="4.00" shape="850.89,834.66 871.25,824.63">
      <param key="origId" value="543_-1"/>
    </lane>
  </edge>
  <edge id=":338_7" function="internal">
    <lane id=":338_7_0" index="0" disallow="pedestrian tram rail_urban rail rail_electric rail_fast ship" speed="9.92" length="21.78" width="4.00" shape="850.89,834.66 857.63,832.11 863.11,831.59 867.32,833.09 870.27,836.62">
      <param key="origId" value="542_-1"/>
    </lane>
  </edge>
  <edge id=":339_0" function="internal">
    <lane id=":339_0_0" index="0" disallow="pedestrian tram rail_urban rail rail_electric rail_fast ship" speed="13.89" length="10.99" width="4.00" shape="713.43,1095.20 718.39,1105.00">
      <param key="origId" value="549_-1"/>
    </lane>
  </edge>
  <edge id=":339_1" function="internal">
    <lane id=":339_1_0" index="0" disallow="pedestrian tram rail_urban rail rail_electric rail_fast ship" speed="7.16" length="10.94" width="4.00" shape="713.43,1095.20 714.56,1098.30 714.60,1100.90 713.54,1103.00 711.39,1104.60">
      <param key="origId" value="548_-1"/>
    </lane>
  </edge>
  <edge id=":339_2" function="internal">
    <lane id=":339_2_0" index="0" disallow="pedestrian tram rail_urban rail rail_electric rail_fast ship" speed="7.20" length="3.10" width="4.00" shape="709.61,1101.01 712.18,1100.26 712.60,1100.33">
      <param key="origId" value="550_-1"/>
    </lane>
  </edge>
  <edge id=":339_3" function="internal">
    <lane id=":339_3_0" index="0" disallow="pedestrian tram rail_urban rail rail_electric rail_fast ship" speed="7.20" length="7.84" width="4.00" shape="712.60,1100.33 714.50,1100.67 716.57,1102.25 718.39,1105.00">
      <param key="origId" value="550_-1"/>
    </lane>
  </edge>
  <edge id=":344_0" function="internal">
    <lane id=":344_0_0" index="0" disallow="pedestrian tram rail_urban rail rail_electric rail_fast ship" speed="13.89" length="52.58" width="4.00" shape="763.70,913.64 785.47,961.43">
      <param key="origId" value="559_-1"/>
    </lane>
    <lane id=":344_0_1" index="1" disallow="pedestrian tram rail_urban rail rail_electric rail_fast ship" speed="13.89" length="52.58" width="4.00" shape="760.05,915.28 781.88,963.19">
      <param key="origId" value="558_-1"/>
    </lane>
  </edge>
  <edge id=":344_2" function="internal">
    <lane id=":344_2_0" index="0" disallow="pedestrian tram rail_urban rail rail_electric rail_fast ship" speed="13.89" length="52.82" width="4.00" shape="756.15,917.27 785.47,961.43">
      <param key="origId" value="561_-1"/>
    </lane>
    <lane id=":344_2_1" index="1" disallow="pedestrian tram rail_urban rail rail_electric rail_fast ship" speed="13.89" length="52.82" width="4.00" shape="756.15,917.27 781.88,963.19">
      <param key="origId" value="560_-1"/>
    </lane>
  </edge>
  <edge id=":345_0" function="internal">
    <lane id=":345_0_0" index="0" disallow="pedestrian tram rail_urban rail rail_electric rail_fast ship" speed="7.12" length="8.94" width="4.00" shape="1111.01,1291.74 1109.43,1290.24 1107.56,1289.51 1105.39,1289.55 1102.93,1290.36">
      <param key="origId" value="565_-1"/>
    </lane>
  </edge>
  <edge id=":345_1" function="internal">
    <lane id=":345_1_0" index="0" disallow="pedestrian tram rail_urban rail rail_electric rail_fast ship" speed="13.89" length="11.24" width="4.00" shape="1111.01,1291.74 1104.25,1282.76">
      <param key="origId" value="564_-1"/>
    </lane>
  </edge>
  <edge id=":345_2" function="internal">
    <lane id=":345_2_0" index="0" disallow="pedestrian tram rail_urban rail rail_electric rail_fast ship" speed="13.89" length="11.09" width="4.00" shape="1107.53,1280.46 1114.19,1289.32">
      <param key="origId" value="563_-1"/>
    </lane>
  </edge>
  <edge id=":345_3" function="internal">
    <lane id=":345_3_0" index="0" disallow="pedestrian tram rail_urban rail rail_electric rail_fast ship" speed="7.29" length="4.97" width="4.00" shape="1107.53,1280.46 1108.79,1283.29 1108.55,1285.14">
      <param key="origId" value="562_-1"/>
    </lane>
  </edge>
  <edge id=":345_4" function="internal">
    <lane id=":345_4_0" index="0" disallow="pedestrian tram rail_urban rail rail_electric rail_fast ship" speed="7.29" length="7.96" width="4.00" shape="1108.55,1285.14 1108.45,1285.89 1106.50,1288.24 1102.93,1290.36">
      <param key="origId" value="562_-1"/>
    </lane>
  </edge>
  <edge id=":351_0" function="internal">
    <lane id=":351_0_0" index="0" disallow="pedestrian tram rail_urban rail rail_electric rail_fast ship" speed="13.89" length="24.17" width="4.00" shape="1171.09,1131.65 1149.43,1142.24">
      <param key="origId" value="572_-1"/>
    </lane>
    <lane id=":351_0_1" index="1" disallow="pedestrian tram rail_urban rail rail_electric rail_fast ship" speed="13.89" length="24.17" width="4.00" shape="1169.36,1128.05 1147.64,1138.66">
      <param key="origId" value="571_-1"/>
    </lane>
    <lane id=":351_0_2" index="2" disallow="pedestrian tram rail_urban rail rail_electric rail_fast ship" speed="13.89" length="24.17" width="4.00" shape="1167.64,1124.44 1145.86,1135.08">
      <param key="origId" value="570_-1"/>
    </lane>
  </edge>
  <edge id=":351_3" function="internal">
    <lane id=":351_3_0" index="0" disallow="pedestrian tram rail_urban rail rail_electric rail_fast ship" speed="10.48" length="24.86" width="4.00" shape="1154.49,1121.00 1156.99,1127.94 1156.99,1133.79 1154.46,1138.55 1149.43,1142.24">
      <param key="origId" value="575_-1"/>
    </lane>
  </edge>
  <edge id=":351_4" function="internal">
    <lane id=":351_4_0" index="0" disallow="pedestrian tram rail_urban rail rail_electric rail_fast ship" speed="9.80" length="21.60" width="4.00" shape="1154.49,1121.00 1156.21,1126.37 1155.64,1131.11 1152.79,1135.20 1147.64,1138.66">
      <param key="origId" value="574_-1"/>
    </lane>
  </edge>
  <edge id=":351_5" function="internal">
    <lane id=":351_5_0" index="0" disallow="pedestrian tram rail_urban rail rail_electric rail_fast ship" speed="9.13" length="18.55" width="4.00" shape="1154.49,1121.00 1155.42,1124.81 1154.30,1128.42 1151.11,1131.85 1145.86,1135.08">
      <param key="origId" value="573_-1"/>
    </lane>
  </edge>
  <edge id=":352_0" function="internal">
    <lane id=":352_0_0" index="0" disallow="pedestrian tram rail_urban rail rail_electric rail_fast ship" speed="6.46" length="8.75" width="4.00" shape="826.16,1298.95 823.03,1300.65 820.92,1302.11 819.84,1303.33 819.79,1304.33">
      <param key="origId" value="581_-1"/>
    </lane>
  </edge>
  <edge id=":352_1" function="internal">
    <lane id=":352_1_0" index="0" disallow="pedestrian tram rail_urban rail rail_electric rail_fast ship" speed="13.89" length="22.46" width="4.00" shape="826.16,1298.95 806.18,1309.09">
      <param key="origId" value="580_-1"/>
    </lane>
    <lane id=":352_1_1" index="1" disallow="pedestrian tram rail_urban rail rail_electric rail_fast ship" speed="13.89" length="22.46" width="4.00" shape="824.38,1295.37 804.35,1305.53">
      <param key="origId" value="579_-1"/>
    </lane>
    <lane id=":352_1_2" index="2" disallow="pedestrian tram rail_urban rail rail_electric rail_fast ship" speed="13.89" length="22.46" width="4.00" shape="822.60,1291.79 802.53,1301.97">
      <param key="origId" value="578_-1"/>
    </lane>
  </edge>
  <edge id=":352_4" function="internal">
    <lane id=":352_4_0" index="0" disallow="pedestrian tram rail_urban rail rail_electric rail_fast ship" speed="13.89" length="21.24" width="4.00" shape="809.87,1285.55 819.79,1304.33">
      <param key="origId" value="577_-1"/>
    </lane>
  </edge>
  <edge id=":352_5" function="internal">
    <lane id=":352_5_0" index="0" disallow="pedestrian tram rail_urban rail rail_electric rail_fast ship" speed="9.56" length="20.44" width="4.00" shape="809.87,1285.55 811.33,1290.34 810.60,1294.67 807.67,1298.55 802.53,1301.97">
      <param key="origId" value="576_-1"/>
    </lane>
  </edge>