<?xml version="1.0" encoding="UTF-8"?>

<!-- generated on Thu Jul  1 17:54:43 2021 by Eclipse SUMO polyconvert Version 1.7.0
<configuration xmlns:xsi="http://www.w3.org/2001/XMLSchema-instance" xsi:noNamespaceSchemaLocation="http://sumo.dlr.de/xsd/polyconvertConfiguration.xsd">

    <input>
        <net-file value="map.net.xml"/>
        <osm-files value="map.osm"/>
    </input>

    <output>
        <output-file value="map.poly.xml"/>
    </output>

    <processing>
        <poi-layer-offset value="5"/>
    </processing>

</configuration>
-->

<additional xmlns:xsi="http://www.w3.org/2001/XMLSchema-instance" xsi:noNamespaceSchemaLocation="http://sumo.dlr.de/xsd/additional_file.xsd">
    <location netOffset="-613.84,-449.86" convBoundary="-613.84,-449.86,6177.96,1774.62" origBoundary="0.000000,0.000000,139.834863,35.686004" projParameter="+proj=tmerc +lat_0=35.6659574 +lon_0=139.759849 +x_0=0 +y_0=0 +ellps=GRS80 +units=m +no_defs"/>

    <poly id="171848733" type="building" color="255,230,230" fill="1" layer="-1.00" shape="1018.409394,1099.281733 1034.861443,1129.985487 1075.529968,1108.390554 1059.078019,1077.686725 1018.409394,1099.281733"/>
    <poly id="171848734" type="building" color="255,230,230" fill="1" layer="-1.00" shape="984.129314,1136.555744 1005.314436,1125.686173 994.862292,1105.501910 973.677135,1116.371505 984.129314,1136.555744"/>
    <poly id="171848740" type="building" color="255,230,230" fill="1" layer="-1.00" shape="1060.366965,1155.453987 1075.712533,1148.078508 1073.341675,1143.196122 1057.996100,1150.571604 1060.366965,1155.453987"/>
    <poly id="171848741" type="building" color="255,230,230" fill="1" layer="-1.00" shape="1082.410332,1106.572233 1096.769194,1099.551653 1081.901416,1069.413948 1067.542516,1076.434552 1082.410332,1106.572233"/>
    <poly id="171848742" type="building" color="255,230,230" fill="1" layer="-1.00" shape="922.760543,1142.492014 938.352643,1174.360450 967.468272,1160.241251 951.876250,1128.383860 922.760543,1142.492014"/>
    <poly id="171848748" type="building" color="255,230,230" fill="1" layer="-1.00" shape="977.973098,1189.534742 983.803548,1186.229386 978.382754,1176.741924 972.950713,1179.492589 977.973098,1189.534742"/>
    <poly id="171848751" type="building" color="255,230,230" fill="1" layer="-1.00" shape="995.681266,1132.119704 1000.052134,1140.674979 1013.360721,1133.931457 1008.989863,1125.376175 995.681266,1132.119704"/>
    <poly id="171848757" type="building" color="255,230,230" fill="1" layer="-1.00" shape="979.693025,1189.879005 985.204091,1200.720112 998.087056,1194.253872 985.607886,1170.241369 979.650742,1173.247128 986.202444,1186.429533 979.693025,1189.879005"/>
    <poly id="171848758" type="building" color="255,230,230" fill="1" layer="-1.00" shape="958.131418,1180.732632 970.416678,1175.630970 973.294200,1182.355241 961.488708,1187.601223 958.131418,1180.732632"/>
    <poly id="171848760" type="building" color="255,230,230" fill="1" layer="-1.00" shape="1060.674655,1155.975524 1064.294296,1163.398968 1083.759175,1154.004936 1080.148599,1146.581485 1060.674655,1155.975524"/>
    <poly id="171848763" type="building" color="255,230,230" fill="1" layer="-1.00" shape="1056.035371,1130.932539 1062.912548,1145.901405 1072.726431,1141.431851 1065.849267,1126.462978 1056.035371,1130.932539"/>
    <poly id="171848769" type="building" color="255,230,230" fill="1" layer="-1.00" shape="988.786097,1166.070105 1000.794099,1192.456923 1030.543320,1179.037050 1032.463560,1173.134700 1021.197075,1151.452387 988.786097,1166.070105"/>
    <poly id="171848773" type="building" color="255,230,230" fill="1" layer="-1.00" shape="975.428405,1144.032423 992.331190,1135.458786 994.521155,1139.719781 997.182869,1138.377730 999.336631,1142.583243 1009.920124,1137.203944 1013.757066,1144.693979 983.600050,1160.000037 975.428405,1144.032423"/>
    <poly id="171848775" type="building" color="255,230,230" fill="1" layer="-1.00" shape="1073.360096,1141.531829 1081.607804,1137.483610 1079.490435,1132.523603 1084.334280,1128.918552 1080.479596,1119.797473 1066.637012,1125.586597 1073.360096,1141.531829"/>
    <poly id="171848779" type="building" color="255,230,230" fill="1" layer="-1.00" shape="948.697743,1185.779335 957.262153,1181.964058 962.058275,1191.806446 964.103610,1194.880210 967.245074,1193.626998 969.009597,1197.710386 956.172020,1203.621910 948.697743,1185.779335"/>
    <poly id="171848780" type="building" color="255,230,230" fill="1" layer="-1.00" shape="1051.493631,1164.961001 1056.345459,1166.892494 1062.981653,1163.487483 1057.027460,1150.626899 1062.740331,1147.055285 1054.795019,1131.686787 1039.132477,1139.716866 1051.493631,1164.961001"/>
    <poly id="171848782" type="building" color="255,230,230" fill="1" layer="-1.00" shape="937.263021,1193.344335 937.706980,1191.147541 947.593147,1186.811005 955.854957,1204.886720 965.523933,1200.117448 970.473811,1210.625588 951.941756,1219.065836 947.886592,1216.934824 937.263021,1193.344335"/>
    <poly id="171848783" type="building" color="255,230,230" fill="1" layer="-1.00" shape="962.773534,1191.207426 974.660674,1184.962882 983.510686,1203.926352 971.741342,1209.649426 966.981380,1200.206470 969.715494,1198.853328 967.390057,1192.828161 964.366290,1194.003727 962.773534,1191.207426"/>
    <poly id="178989935" type="landuse" color="194,194,130" fill="1" layer="-3.00" shape="654.420361,969.251946 662.677099,965.147864 678.813551,997.415345 678.577863,999.589991 677.744825,1000.854735 673.381078,1003.028782 671.923653,1002.551473 670.683537,1001.774623 654.420361,969.251946"/>
    <poly id="187600855" type="building" color="255,230,230" fill="1" layer="-1.00" shape="840.623554,1268.942544 837.871799,1267.699420 835.382818,1264.914091 825.817398,1245.972841 820.613868,1235.653361 830.364227,1230.784098 836.264569,1242.479516 842.674276,1239.274019 850.013477,1253.810081 844.337090,1256.649548 849.640126,1267.168774 846.688771,1268.643965 843.656069,1269.364663 840.623554,1268.942544"/>
    <poly id="187600858" type="building" color="255,230,230" fill="1" layer="-1.00" shape="826.597597,1123.813608 841.599051,1116.282336 839.119465,1111.144803 823.801213,1118.365359 826.597597,1123.813608"/>
    <poly id="187600860" type="building" color="255,230,230" fill="1" layer="-1.00" shape="807.054716,1112.770632 800.041120,1098.889283 798.176858,1095.194249 784.451933,1102.071172 793.338864,1119.647542 807.054716,1112.770632"/>
    <poly id="187600861" type="building" color="255,230,230" fill="1" layer="-1.00" shape="877.420915,1220.994706 882.904955,1231.680411 886.381423,1229.916843 888.218481,1233.500938 896.538471,1229.275034 888.321476,1213.274205 879.820408,1217.599944 880.707268,1219.319866 877.420915,1220.994706"/>
    <poly id="187600863" type="building" color="255,230,230" fill="1" layer="-1.00" shape="856.755911,1263.985593 851.950625,1254.342975 846.102234,1257.226794 850.907524,1266.869409 856.755911,1263.985593"/>
    <poly id="187600869" type="building" color="255,230,230" fill="1" layer="-1.00" shape="805.736364,1205.294205 817.899125,1229.350788 856.846338,1209.840493 854.285304,1204.769513 849.036530,1194.383438 845.723018,1196.047190 841.361091,1187.436515 805.736364,1205.294205"/>
    <poly id="187600871" type="building" color="255,230,230" fill="1" layer="-1.00" shape="823.638396,1117.555375 839.047238,1109.957593 833.816517,1099.438388 818.398609,1107.036177 823.638396,1117.555375"/>
    <poly id="187600872" type="building" color="255,230,230" fill="1" layer="-1.00" shape="852.235426,1174.123929 866.268108,1167.080732 862.838300,1160.300928 848.805611,1167.344130 852.235426,1174.123929"/>
    <poly id="187600875" type="building" color="255,230,230" fill="1" layer="-1.00" shape="875.809935,1218.775374 888.149611,1212.486409 884.430234,1205.240544 872.090551,1211.529514 875.809935,1218.775374"/>
    <poly id="187600878" type="building" color="255,230,230" fill="1" layer="-1.00" shape="853.366787,1175.411172 858.688039,1185.486592 871.764872,1210.253499 883.769613,1203.964472 865.371561,1169.122120 853.366787,1175.411172"/>
    <poly id="187600884" type="building" color="255,230,230" fill="1" layer="-1.00" shape="774.262156,1079.535005 778.651355,1088.167841 791.769725,1081.557101 787.389588,1072.924260 774.262156,1079.535005"/>
    <poly id="187600893" type="building" color="255,230,230" fill="1" layer="-1.00" shape="778.995214,1089.077710 784.796174,1100.551169 797.860205,1093.995906 793.715381,1085.795816 792.059258,1082.522438 778.995214,1089.077710"/>
    <poly id="187600899" type="building" color="255,230,230" fill="1" layer="-1.00" shape="838.072677,1146.261284 852.386034,1139.151539 849.625891,1133.636716 835.312528,1140.746465 838.072677,1146.261284"/>
    <poly id="187600908" type="building" color="255,230,230" fill="1" layer="-1.00" shape="784.161552,1164.082807 791.890056,1179.351171 831.643179,1159.430368 829.815141,1155.813001 823.923779,1144.161972 784.161552,1164.082807"/>
    <poly id="187600923" type="building" color="255,230,230" fill="1" layer="-1.00" shape="847.818971,1166.778107 862.684565,1159.346706 852.838557,1139.806237 837.972940,1147.226560 842.877861,1156.969043 847.818971,1166.778107"/>
    <poly id="187600924" type="building" color="255,230,230" fill="1" layer="-1.00" shape="834.507083,1139.281753 848.666554,1132.171978 841.137195,1117.325219 826.977703,1124.457197 831.421125,1133.212117 834.507083,1139.281753"/>
    <poly id="187600930" type="building" color="255,230,230" fill="1" layer="-1.00" shape="793.111797,1181.614808 802.423995,1199.856975 841.977905,1179.869614 837.996042,1172.068961 832.674821,1161.616312 793.111797,1181.614808"/>
    <poly id="187600939" type="building" color="255,230,230" fill="1" layer="-1.00" shape="818.502614,1135.761948 809.977849,1118.218896 807.615886,1113.358773 793.039939,1120.834693 772.704946,1080.488958 750.415478,1091.991345 748.948321,1096.063098 778.478318,1152.609366 782.017686,1153.896976 818.502614,1135.761948"/>
    <poly id="187600944" type="building" color="255,230,230" fill="1" layer="-1.00" shape="861.191956,1262.044649 872.209784,1256.421161 875.595930,1253.381612 876.565277,1249.032412 875.932244,1245.193329 875.153983,1243.673141 864.371522,1249.174616 857.539070,1235.914587 849.771353,1239.874331 861.191956,1262.044649"/>
    <poly id="187600949" type="landuse" color="194,194,130" fill="1" layer="-3.00" shape="1055.885038,1304.807120 1090.839878,1287.516161 1091.926857,1283.954774 1053.693869,1210.796138 1045.827666,1208.320412 1015.353979,1223.581924 1055.885038,1304.807120"/>
    <poly id="187643565" type="building" color="255,230,230" fill="1" layer="-1.00" shape="734.975154,1009.018281 743.916623,1026.394893 759.669626,1018.364309 757.642418,1014.425163 746.673749,993.098298 724.565186,1004.367775 722.094506,999.552041 717.549672,1001.870278 714.255422,995.467794 701.915568,1001.756998 711.753073,1020.864577 734.975154,1009.018281"/>
    <poly id="187643571" type="building" color="255,230,230" fill="1" layer="-1.00" shape="924.350480,1318.708010 936.246420,1312.774084 934.282721,1308.857097 922.377725,1314.791024 924.350480,1318.708010"/>
    <poly id="187643574" type="building" color="255,230,230" fill="1" layer="-1.00" shape="998.473334,1260.626090 994.736100,1252.625694 988.715679,1255.420625 992.452918,1263.421019 998.473334,1260.626090"/>
    <poly id="187643575" type="building" color="255,230,230" fill="1" layer="-1.00" shape="765.608399,1250.689900 775.729880,1245.720776 773.594160,1241.404367 763.472673,1246.384588 765.608399,1250.689900"/>
    <poly id="187643576" type="building" color="255,230,230" fill="1" layer="-1.00" shape="1015.851464,1275.186306 1030.599267,1268.121308 1028.427495,1263.649496 1013.679686,1270.714498 1015.851464,1275.186306"/>
    <poly id="187643577" type="building" color="255,230,230" fill="1" layer="-1.00" shape="911.989994,1183.198849 920.572530,1179.183824 919.025103,1175.910441 910.442564,1179.925468 911.989994,1183.198849"/>
    <poly id="187643578" type="building" color="255,230,230" fill="1" layer="-1.00" shape="732.303956,1252.426759 742.561230,1247.291189 740.416427,1243.074644 730.159153,1248.188026 732.303956,1252.426759"/>
    <poly id="187643581" type="building" color="255,230,230" fill="1" layer="-1.00" shape="1030.834780,1316.263908 1050.226954,1306.414879 1043.431034,1293.154713 1024.038838,1303.003756 1030.834780,1316.263908"/>
    <poly id="187643588" type="building" color="255,230,230" fill="1" layer="-1.00" shape="1018.220233,1291.430276 1037.268385,1281.947301 1036.064851,1279.550491 1017.007644,1289.022371 1018.220233,1291.430276"/>
    <poly id="187643589" type="building" color="255,230,230" fill="1" layer="-1.00" shape="954.014505,1272.013024 961.715472,1287.248248 967.717796,1284.242484 960.016836,1269.007255 954.014505,1272.013024"/>
    <poly id="187643593" type="building" color="255,230,230" fill="1" layer="-1.00" shape="762.671348,1276.774521 785.259094,1265.316590 779.919756,1254.897254 755.385551,1267.353477 759.539390,1275.475885 761.494879,1274.488705 762.671348,1276.774521"/>
    <poly id="187643595" type="building" color="255,230,230" fill="1" layer="-1.00" shape="985.648183,1298.503167 999.744120,1291.582239 990.124843,1272.196990 976.037934,1279.129029 985.648183,1298.503167"/>
    <poly id="187643596" type="building" color="255,230,230" fill="1" layer="-1.00" shape="857.042288,1065.035649 864.737678,1061.442045 862.475299,1056.648496 854.779903,1060.253197 857.042288,1065.035649"/>
    <poly id="187643597" type="building" color="255,230,230" fill="1" layer="-1.00" shape="749.429826,966.780654 764.069401,959.027291 755.037301,942.138841 740.397705,949.892219 749.429826,966.780654"/>
    <poly id="187643599" type="building" color="255,230,230" fill="1" layer="-1.00" shape="744.566216,1277.870172 756.163343,1272.035818 754.118103,1267.996810 742.520972,1273.831167 744.566216,1277.870172"/>
    <poly id="187643602" type="building" color="255,230,230" fill="1" layer="-1.00" shape="712.160314,1021.752262 720.794143,1038.318847 742.712516,1027.004951 734.078716,1010.438345 712.160314,1021.752262"/>
    <poly id="187643604" type="building" color="255,230,230" fill="1" layer="-1.00" shape="744.991474,1219.997097 759.005915,1212.809488 751.340682,1197.996069 739.127822,1204.263053 742.838276,1211.431188 741.036679,1212.351824 744.991474,1219.997097"/>
    <poly id="187643606" type="building" color="255,230,230" fill="1" layer="-1.00" shape="957.560472,1030.624103 941.388893,998.289536 916.301538,1010.734118 932.473188,1043.057545 957.560472,1030.624103"/>
    <poly id="187643607" type="building" color="255,230,230" fill="1" layer="-1.00" shape="1013.064273,1269.860046 1019.591680,1266.798937 1015.773011,1258.709755 1009.236547,1261.770865 1013.064273,1269.860046"/>
    <poly id="187643609" type="building" color="255,230,230" fill="1" layer="-1.00" shape="734.550600,943.211956 737.917248,949.803079 754.602885,941.362103 751.236246,934.770974 734.550600,943.211956"/>
    <poly id="187643611" type="building" color="255,230,230" fill="1" layer="-1.00" shape="760.458862,1242.012569 763.681811,1240.382057 760.677282,1234.512173 768.100937,1230.752014 764.752516,1224.205261 754.105905,1229.595937 760.458862,1242.012569"/>
    <poly id="187643613" type="building" color="255,230,230" fill="1" layer="-1.00" shape="763.746572,997.638907 779.499703,989.231119 776.404554,983.472171 760.651414,991.891059 763.746572,997.638907"/>
    <poly id="187643614" type="building" color="255,230,230" fill="1" layer="-1.00" shape="867.926401,1048.405590 889.690947,1037.646794 883.908204,1026.073413 862.143636,1036.843318 867.926401,1048.405590"/>
    <poly id="187643615" type="building" color="255,230,230" fill="1" layer="-1.00" shape="723.237903,1041.481377 731.943965,1059.035467 770.828307,1039.902031 765.126872,1028.417502 762.122302,1022.358999 723.237903,1041.481377"/>
    <poly id="187643617" type="building" color="255,230,230" fill="1" layer="-1.00" shape="883.194499,1124.943582 895.492613,1150.986351 905.134414,1146.472202 892.845375,1120.429421 883.194499,1124.943582"/>
    <poly id="187643619" type="building" color="255,230,230" fill="1" layer="-1.00" shape="903.615220,1030.725688 910.894237,1027.109863 905.030065,1015.392215 897.760095,1018.996951 903.615220,1030.725688"/>
    <poly id="187643620" type="building" color="255,230,230" fill="1" layer="-1.00" shape="996.993711,1283.071636 1006.716927,1278.368991 1005.232876,1275.317510 995.509657,1280.020157 996.993711,1283.071636"/>
    <poly id="187643630" type="building" color="255,230,230" fill="1" layer="-1.00" shape="868.950768,1094.240477 877.931722,1090.025762 869.968183,1073.170657 860.987218,1077.374284 868.950768,1094.240477"/>
    <poly id="187643631" type="building" color="255,230,230" fill="1" layer="-1.00" shape="879.773814,1117.731056 888.890548,1113.460898 883.560437,1102.187166 874.443693,1106.457329 879.773814,1117.731056"/>
    <poly id="187643646" type="building" color="255,230,230" fill="1" layer="-1.00" shape="982.632076,1257.205876 993.197264,1252.126127 986.401359,1238.078238 975.827105,1243.157993 982.632076,1257.205876"/>
    <poly id="187643647" type="building" color="255,230,230" fill="1" layer="-1.00" shape="756.943427,1261.850442 750.843865,1249.988617 747.014354,1251.940805 748.453275,1254.737043 736.638841,1260.759995 739.670532,1266.652066 751.566438,1260.584750 753.195400,1263.758259 756.943427,1261.850442"/>
    <poly id="187643651" type="building" color="255,230,230" fill="1" layer="-1.00" shape="975.265115,1297.924349 967.841450,1301.562288 973.859158,1313.746012 981.291870,1310.096985 975.265115,1297.924349"/>
    <poly id="187643652" type="building" color="255,230,230" fill="1" layer="-1.00" shape="762.370325,1057.597733 767.139683,1066.729911 780.946163,1059.597783 776.176816,1050.465598 762.370325,1057.597733"/>
    <poly id="187643654" type="landuse" color="194,194,130" fill="1" layer="-3.00" shape="717.235978,1222.722345 729.023291,1216.699364 726.715565,1212.238701 714.928248,1218.261685 717.235978,1222.722345"/>
    <poly id="187643656" type="building" color="255,230,230" fill="1" layer="-1.00" shape="852.697756,1060.408188 861.352811,1056.359832 857.099529,1047.349738 848.444467,1051.398098 852.697756,1060.408188"/>
    <poly id="187643667" type="building" color="255,230,230" fill="1" layer="-1.00" shape="1002.226523,1330.238756 1020.043311,1321.476716 1013.156948,1307.584122 995.331089,1316.335080 1002.226523,1330.238756"/>
    <poly id="187643671" type="building" color="255,230,230" fill="1" layer="-1.00" shape="725.135662,1003.358188 746.275509,992.565663 744.691743,989.492021 723.551891,1000.284550 725.135662,1003.358188"/>
    <poly id="187643672" type="building" color="255,230,230" fill="1" layer="-1.00" shape="921.789398,1314.313824 934.210429,1308.124794 923.523163,1286.853227 911.102110,1293.042272 921.789398,1314.313824"/>
    <poly id="187643674" type="building" color="255,230,230" fill="1" layer="-1.00" shape="717.930167,1000.006323 723.009131,997.588309 720.321300,991.984775 715.242333,994.402792 717.930167,1000.006323"/>
    <poly id="187643675" type="building" color="255,230,230" fill="1" layer="-1.00" shape="742.791460,1221.616676 746.501883,1228.917957 763.250371,1220.488099 759.539957,1213.186811 742.791460,1221.616676"/>
    <poly id="187643676" type="building" color="255,230,230" fill="1" layer="-1.00" shape="918.958029,1197.413140 925.726941,1211.305637 934.599184,1207.024388 927.821232,1193.120787 918.958029,1197.413140"/>
    <poly id="187643677" type="building" color="255,230,230" fill="1" layer="-1.00" shape="879.723178,1311.410782 891.582864,1305.621030 888.279849,1298.929998 885.536727,1300.272068 880.260942,1289.575299 871.153415,1294.022994 879.723178,1311.410782"/>
    <poly id="187643678" type="building" color="255,230,230" fill="1" layer="-1.00" shape="916.152326,1193.973110 926.038530,1189.348073 921.667736,1180.093828 911.781524,1184.718871 916.152326,1193.973110"/>
    <poly id="187643679" type="amenity" color="237,199,199" fill="1" layer="-1.00" shape="730.059635,1247.788580 740.389325,1242.708495 738.063537,1238.048111 727.742895,1243.128200 730.059635,1247.788580"/>
    <poly id="187643679#1" type="building" color="255,230,230" fill="1" layer="-1.00" shape="730.059635,1247.788580 740.389325,1242.708495 738.063537,1238.048111 727.742895,1243.128200 730.059635,1247.788580"/>
    <poly id="187643679#2" type="shop" color="237,199,255" fill="1" layer="-1.00" shape="730.059635,1247.788580 740.389325,1242.708495 738.063537,1238.048111 727.742895,1243.128200 730.059635,1247.788580"/>
    <poly id="187643681" type="building" color="255,230,230" fill="1" layer="-1.00" shape="1023.912316,1301.849821 1042.553033,1292.677451 1037.693675,1282.901577 1019.052942,1292.073957 1023.912316,1301.849821"/>
    <poly id="187643687" type="building" color="255,230,230" fill="1" layer="-1.00" shape="1020.803626,1321.965049 1027.856115,1318.493516 1020.806879,1304.268027 1013.745331,1307.728469 1020.803626,1321.965049"/>
    <poly id="187643689" type="building" color="255,230,230" fill="1" layer="-1.00" shape="896.080942,1151.519025 909.048630,1178.971032 918.962007,1174.334896 906.003395,1146.882876 896.080942,1151.519025"/>
    <poly id="187643690" type="building" color="255,230,230" fill="1" layer="-1.00" shape="734.874109,1257.431134 747.195522,1251.175256 744.824473,1246.537054 732.503057,1252.781840 734.874109,1257.431134"/>
    <poly id="187643692" type="building" color="255,230,230" fill="1" layer="-1.00" shape="860.462401,1075.931807 870.086158,1071.428713 865.670001,1062.074633 856.046236,1066.577732 860.462401,1075.931807"/>
    <poly id="187643695" type="landuse" color="194,194,130" fill="1" layer="-3.00" shape="682.633358,1062.667402 660.787584,1073.892695 669.873943,1091.491161 654.682463,1099.189124 662.836587,1115.389441 666.864829,1116.677076 698.669171,1100.415992 699.774124,1096.843466 682.633358,1062.667402"/>
    <poly id="187643697" type="building" color="255,230,230" fill="1" layer="-1.00" shape="737.163367,1204.595613 751.250260,1197.319241 749.349783,1193.657498 740.432304,1198.260689 735.291949,1188.373986 733.870584,1189.106061 730.113473,1191.047172 737.163367,1204.595613"/>
    <poly id="187643701" type="building" color="255,230,230" fill="1" layer="-1.00" shape="733.926118,942.135617 750.512183,933.705714 743.923687,920.834151 727.337604,929.264066 731.971286,938.318536 733.926118,942.135617"/>
    <poly id="187643704" type="building" color="255,230,230" fill="1" layer="-1.00" shape="770.888159,1004.352677 782.983630,998.085720 779.083058,990.617967 766.987579,996.884929 770.888159,1004.352677"/>
    <poly id="187643707" type="building" color="255,230,230" fill="1" layer="-1.00" shape="761.645774,1235.344471 766.252100,1244.421149 773.204978,1240.916113 768.598657,1231.839431 761.645774,1235.344471"/>
    <poly id="187643712" type="building" color="255,230,230" fill="1" layer="-1.00" shape="757.646275,989.416342 774.621594,980.664780 764.159697,960.525172 747.175297,969.276753 757.646275,989.416342"/>
    <poly id="187643713" type="building" color="255,230,230" fill="1" layer="-1.00" shape="962.140697,1288.613047 967.262499,1299.276550 974.016208,1296.060113 968.903463,1285.407703 962.140697,1288.613047"/>
    <poly id="187643714" type="building" color="255,230,230" fill="1" layer="-1.00" shape="702.466975,1190.721273 721.768508,1181.037945 738.209267,1172.652376 708.181531,1113.787247 683.493139,1126.265833 672.439064,1131.845168 702.466975,1190.721273"/>
    <poly id="187643715" type="building" color="255,230,230" fill="1" layer="-1.00" shape="891.637461,1036.593070 902.990562,1030.836534 897.117294,1019.329701 885.755131,1025.075147 891.637461,1036.593070"/>
    <poly id="187643717" type="building" color="255,230,230" fill="1" layer="-1.00" shape="752.620030,1061.057966 775.579514,1049.333783 774.113417,1046.493155 771.316975,1041.056019 748.357474,1052.791308 752.620030,1061.057966"/>
    <poly id="187643718" type="building" color="255,230,230" fill="1" layer="-1.00" shape="720.213381,1228.603306 727.012352,1225.153687 724.306432,1219.916293 717.507458,1223.365914 720.213381,1228.603306"/>
    <poly id="187643724" type="building" color="255,230,230" fill="1" layer="-1.00" shape="997.355736,1283.482228 1001.020564,1291.327278 1010.897643,1286.746714 1007.232820,1278.912755 997.355736,1283.482228"/>
    <poly id="187643726" type="building" color="255,230,230" fill="1" layer="-1.00" shape="1012.238675,1279.823485 1016.294535,1277.915834 1009.127730,1262.791614 1005.071865,1264.699268 1012.238675,1279.823485"/>
    <poly id="187643728" type="building" color="255,230,230" fill="1" layer="-1.00" shape="757.273067,943.958816 761.600654,941.773709 766.462417,939.211447 758.480195,923.854309 753.881002,926.128138 749.290833,928.601686 757.273067,943.958816"/>
    <poly id="187643732" type="building" color="255,230,230" fill="1" layer="-1.00" shape="756.258351,1242.943927 759.608046,1241.235766 754.422552,1230.838661 751.072854,1232.546824 756.258351,1242.943927"/>
    <poly id="187643733" type="building" color="255,230,230" fill="1" layer="-1.00" shape="882.787273,1124.100270 891.904002,1119.830115 889.234427,1114.182151 880.117693,1118.452309 882.787273,1124.100270"/>
    <poly id="187643738" type="building" color="255,230,230" fill="1" layer="-1.00" shape="995.319650,1279.498643 1004.997629,1274.673939 1000.699248,1266.140863 991.030314,1270.965573 995.319650,1279.498643"/>
    <poly id="187643749" type="building" color="255,230,230" fill="1" layer="-1.00" shape="874.036513,1105.325539 883.098936,1101.088652 878.393222,1091.135370 869.339843,1095.383358 874.036513,1105.325539"/>
    <poly id="187643759" type="building" color="255,230,230" fill="1" layer="-1.00" shape="1002.158139,1258.219076 1019.748734,1249.590138 1008.220081,1226.321161 990.638501,1234.961219 1002.158139,1258.219076"/>
    <poly id="187643760" type="building" color="255,230,230" fill="1" layer="-1.00" shape="754.166402,1248.258259 751.115467,1249.811134 757.097375,1261.495416 760.148305,1259.953639 754.166402,1248.258259"/>
    <poly id="187643763" type="building" color="255,230,230" fill="1" layer="-1.00" shape="994.380628,1316.079716 1008.956366,1308.925888 1005.608186,1302.190423 991.041493,1309.344258 994.380628,1316.079716"/>
    <poly id="187643766" type="building" color="255,230,230" fill="1" layer="-1.00" shape="724.719920,998.809050 744.402198,988.548876 740.564932,981.258674 720.891693,991.529953 724.719920,998.809050"/>
    <poly id="187643767" type="parking" color="184,184,179" fill="1" layer="-1.00" shape="699.291288,994.844234 711.920819,988.688213 737.143720,976.387314 734.256769,970.528555 730.863016,963.615665 693.010543,982.072611 699.291288,994.844234"/>
    <poly id="187643769" type="building" color="255,230,230" fill="1" layer="-1.00" shape="913.510676,1025.956400 920.101626,1022.728800 914.355135,1011.088833 907.764181,1014.305342 913.510676,1025.956400"/>
    <poly id="187643770" type="building" color="255,230,230" fill="1" layer="-1.00" shape="954.504477,1060.248035 967.967087,1053.271471 965.324594,1048.211541 962.682096,1043.162707 949.219475,1050.139279 954.504477,1060.248035"/>
    <poly id="187643771" type="building" color="255,230,230" fill="1" layer="-1.00" shape="762.006468,1068.903795 766.180092,1066.763048 761.591745,1057.908281 757.409063,1060.060125 762.006468,1068.903795"/>
    <poly id="187643775" type="building" color="255,230,230" fill="1" layer="-1.00" shape="896.415046,1316.384301 907.125005,1311.004901 903.812926,1304.458101 893.093907,1309.848599 896.415046,1316.384301"/>
    <poly id="187643777" type="building" color="255,230,230" fill="1" layer="-1.00" shape="749.603715,1249.699949 754.220857,1247.348452 749.958396,1239.048505 745.341252,1241.400004 749.603715,1249.699949"/>
    <poly id="187643787" type="building" color="255,230,230" fill="1" layer="-1.00" shape="793.518128,1016.549971 784.287181,998.385498 769.086399,1006.027788 778.317367,1024.203340 793.518128,1016.549971"/>
    <poly id="187643791" type="building" color="255,230,230" fill="1" layer="-1.00" shape="655.234808,1098.257197 668.923441,1091.291308 660.352951,1074.613828 646.673352,1081.579732 655.234808,1098.257197"/>
    <poly id="187643804" type="building" color="255,230,230" fill="1" layer="-1.00" shape="863.065281,1319.807151 879.053206,1311.954340 870.347686,1294.377909 859.203195,1299.857140 856.730690,1307.013207 863.065281,1319.807151"/>
    <poly id="187643809" type="building" color="255,230,230" fill="1" layer="-1.00" shape="590.379460,1247.202707 585.210634,1246.025905 559.055569,1195.239182 561.029766,1189.658502 646.637329,1144.123980 660.253503,1136.880684 678.842195,1174.019366 690.453261,1197.221354 590.379460,1247.202707"/>
    <poly id="187643809#1" type="shop" color="237,199,255" fill="1" layer="-1.00" shape="590.379460,1247.202707 585.210634,1246.025905 559.055569,1195.239182 561.029766,1189.658502 646.637329,1144.123980 660.253503,1136.880684 678.842195,1174.019366 690.453261,1197.221354 590.379460,1247.202707"/>
    <poly id="187643815" type="building" color="255,230,230" fill="1" layer="-1.00" shape="886.143454,1299.018400 892.190987,1296.123546 887.449151,1286.325584 881.410665,1289.220443 886.143454,1299.018400"/>
    <poly id="187643816" type="building" color="255,230,230" fill="1" layer="-1.00" shape="987.602831,1302.298115 990.860548,1308.767269 1007.409931,1300.515359 1010.921007,1307.506046 1019.449196,1303.258104 1012.680422,1289.798251 987.602831,1302.298115"/>
    <poly id="187643831" type="building" color="255,230,230" fill="1" layer="-1.00" shape="692.096445,980.485848 675.046056,945.599719 678.080231,935.414669 704.616077,921.904481 711.749369,924.246651 728.066786,956.425485 730.845167,961.918081 692.096445,980.485848"/>