<connections xmlns:xsi="http://www.w3.org/2001/XMLSchema-instance" xsi:noNamespaceSchemaLocation="http://sumo.dlr.de/xsd/connections_file.xsd">

	<connection from="1si" to="3o" fromLane="0" toLane="0"/>
	<connection from="1si" to="2o" fromLane="2" toLane="0"/>

	<connection from="2si" to="4o" fromLane="0" toLane="0"/>
	<connection from="2si" to="1o" fromLane="2" toLane="0"/>

</connections>