<?xml version="1.0" encoding="UTF-8"?>

<!-- generated on 09/17/14 13:08:36 by SUMO netconvert Version dev-SVN-rUNKNOWN
<?xml version="1.0" encoding="UTF-8"?>

<configuration xmlns:xsi="http://www.w3.org/2001/XMLSchema-instance" xsi:noNamespaceSchemaLocation="https://sumo-sim.org/xsd/netconvertConfiguration.xsd">

    <input>
        <node-files value="c:\users\dkrajzew\appdata\local\temp\tmpsolhp9"/>
        <edge-files value="c:\users\dkrajzew\appdata\local\temp\tmphlu1jq"/>
        <connection-files value="c:\users\dkrajzew\appdata\local\temp\tmpungrvd"/>
    </input>

    <output>
        <output-file value="J:\tls_evaluation\sumo\tools\sumolib\scenario\scenarios\BasicCorridor\net.net.xml"/>
    </output>

    <report>
        <verbose value="true"/>
    </report>

</configuration>
-->

<net version="0.13" xmlns:xsi="http://www.w3.org/2001/XMLSchema-instance" xsi:noNamespaceSchemaLocation="https://sumo-sim.org/xsd/net_file.xsd">

    <location netOffset="0.00,0.00" convBoundary="0.00,0.00,1800.00,1000.00" origBoundary="0.00,0.00,1800.00,1000.00" projParameter="!"/>

    <edge id=":0/1_0" function="internal">
        <lane id=":0/1_0_0" index="0" speed="13.89" length="4.82" shape="0.00,501.65 -1.24,500.82 -1.65,500.00 -1.24,499.18 0.00,498.35"/>
    </edge>
    <edge id=":0/1_to_1/1.-100_0" function="internal">
        <lane id=":0/1_to_1/1.-100_0_0" index="0" speed="13.89" length="3.73" shape="198.50,498.35 201.50,495.05"/>
        <lane id=":0/1_to_1/1.-100_0_1" index="1" speed="13.89" length="3.73" shape="198.50,498.35 201.50,498.35"/>
    </edge>
    <edge id=":1/0_0" function="internal">
        <lane id=":1/0_0_0" index="0" speed="13.89" length="4.82" shape="298.35,0.00 299.17,-1.24 300.00,-1.65 300.82,-1.24 301.65,0.00"/>
    </edge>
    <edge id=":1/0_to_1/1.-100_0" function="internal">
        <lane id=":1/0_to_1/1.-100_0_0" index="0" speed="13.89" length="3.73" shape="301.65,398.50 304.95,401.50"/>
        <lane id=":1/0_to_1/1.-100_0_1" index="1" speed="13.89" length="3.73" shape="301.65,398.50 301.65,401.50"/>
    </edge>
    <edge id=":1/1_0" function="internal">
        <lane id=":1/1_0_0" index="0" speed="13.89" length="7.85" shape="295.05,508.05 294.86,505.25 294.28,503.25 293.31,502.05 291.95,501.65"/>
    </edge>
    <edge id=":1/1_1" function="internal">
        <lane id=":1/1_1_0" index="0" speed="13.89" length="16.51" shape="295.05,508.05 295.57,502.77 296.70,498.79 297.83,495.42 298.35,491.95"/>
    </edge>
    <edge id=":1/1_2" function="internal">
        <lane id=":1/1_2_0" index="0" speed="13.89" length="4.74" shape="298.35,508.05 298.96,503.81 299.19,503.41"/>
    </edge>
    <edge id=":1/1_12" function="internal">
        <lane id=":1/1_12_0" index="0" speed="13.89" length="10.90" shape="299.19,503.41 300.78,500.77 303.81,498.96 308.05,498.35"/>
    </edge>
    <edge id=":1/1_3" function="internal">
        <lane id=":1/1_3_0" index="0" speed="13.89" length="7.85" shape="308.05,504.95 305.25,505.14 303.25,505.72 302.05,506.69 301.65,508.05"/>
    </edge>
    <edge id=":1/1_4" function="internal">
        <lane id=":1/1_4_0" index="0" speed="13.89" length="16.51" shape="308.05,504.95 302.77,504.43 298.79,503.30 295.42,502.17 291.95,501.65"/>
    </edge>
    <edge id=":1/1_5" function="internal">
        <lane id=":1/1_5_0" index="0" speed="13.89" length="4.74" shape="308.05,501.65 303.81,501.04 303.41,500.81"/>
    </edge>
    <edge id=":1/1_13" function="internal">
        <lane id=":1/1_13_0" index="0" speed="13.89" length="10.90" shape="303.41,500.81 300.77,499.22 298.96,496.19 298.35,491.95"/>
    </edge>
    <edge id=":1/1_6" function="internal">
        <lane id=":1/1_6_0" index="0" speed="13.89" length="7.85" shape="304.95,491.95 305.14,494.75 305.72,496.75 306.69,497.95 308.05,498.35"/>
    </edge>
    <edge id=":1/1_7" function="internal">
        <lane id=":1/1_7_0" index="0" speed="13.89" length="16.51" shape="304.95,491.95 304.43,497.23 303.30,501.21 302.17,504.58 301.65,508.05"/>
    </edge>
    <edge id=":1/1_8" function="internal">
        <lane id=":1/1_8_0" index="0" speed="13.89" length="4.74" shape="301.65,491.95 301.04,496.19 300.81,496.59"/>
    </edge>
    <edge id=":1/1_14" function="internal">
        <lane id=":1/1_14_0" index="0" speed="13.89" length="10.90" shape="300.81,496.59 299.22,499.23 296.19,501.04 291.95,501.65"/>
    </edge>
    <edge id=":1/1_9" function="internal">
        <lane id=":1/1_9_0" index="0" speed="13.89" length="7.85" shape="291.95,495.05 294.75,494.86 296.75,494.28 297.95,493.31 298.35,491.95"/>
    </edge>
    <edge id=":1/1_10" function="internal">
        <lane id=":1/1_10_0" index="0" speed="13.89" length="16.51" shape="291.95,495.05 297.23,495.57 301.21,496.70 304.58,497.83 308.05,498.35"/>
    </edge>
    <edge id=":1/1_11" function="internal">
        <lane id=":1/1_11_0" index="0" speed="13.89" length="4.74" shape="291.95,498.35 296.19,498.96 296.59,499.19"/>
    </edge>
    <edge id=":1/1_15" function="internal">
        <lane id=":1/1_15_0" index="0" speed="13.89" length="10.90" shape="296.59,499.19 299.23,500.78 301.04,503.81 301.65,508.05"/>
    </edge>
    <edge id=":1/1_to_0/1.-100_0" function="internal">
        <lane id=":1/1_to_0/1.-100_0_0" index="0" speed="13.89" length="3.73" shape="101.50,501.65 98.50,504.95"/>
        <lane id=":1/1_to_0/1.-100_0_1" index="1" speed="13.89" length="3.73" shape="101.50,501.65 98.50,501.65"/>
    </edge>
    <edge id=":1/1_to_1/0.-100_0" function="internal">
        <lane id=":1/1_to_1/0.-100_0_0" index="0" speed="13.89" length="3.73" shape="298.35,101.50 295.05,98.50"/>
        <lane id=":1/1_to_1/0.-100_0_1" index="1" speed="13.89" length="3.73" shape="298.35,101.50 298.35,98.50"/>
    </edge>
    <edge id=":1/1_to_1/2.-100_0" function="internal">
        <lane id=":1/1_to_1/2.-100_0_0" index="0" speed="13.89" length="3.73" shape="301.65,898.50 304.95,901.50"/>
        <lane id=":1/1_to_1/2.-100_0_1" index="1" speed="13.89" length="3.73" shape="301.65,898.50 301.65,901.50"/>
    </edge>
    <edge id=":1/1_to_2/1.-100_0" function="internal">
        <lane id=":1/1_to_2/1.-100_0_0" index="0" speed="13.89" length="3.73" shape="498.50,498.35 501.50,495.05"/>
        <lane id=":1/1_to_2/1.-100_0_1" index="1" speed="13.89" length="3.73" shape="498.50,498.35 501.50,498.35"/>
    </edge>
    <edge id=":1/2_0" function="internal">
        <lane id=":1/2_0_0" index="0" speed="13.89" length="4.82" shape="301.65,1000.00 300.83,1001.24 300.00,1001.65 299.18,1001.24 298.35,1000.00"/>
    </edge>
    <edge id=":1/2_to_1/1.-100_0" function="internal">
        <lane id=":1/2_to_1/1.-100_0_0" index="0" speed="13.89" length="3.73" shape="298.35,601.50 295.05,598.50"/>
        <lane id=":1/2_to_1/1.-100_0_1" index="1" speed="13.89" length="3.73" shape="298.35,601.50 298.35,598.50"/>
    </edge>
    <edge id=":2/0_0" function="internal">
        <lane id=":2/0_0_0" index="0" speed="13.89" length="4.82" shape="598.35,0.00 599.18,-1.24 600.00,-1.65 600.83,-1.24 601.65,0.00"/>
    </edge>
    <edge id=":2/0_to_2/1.-100_0" function="internal">
        <lane id=":2/0_to_2/1.-100_0_0" index="0" speed="13.89" length="3.73" shape="601.65,398.50 604.95,401.50"/>
        <lane id=":2/0_to_2/1.-100_0_1" index="1" speed="13.89" length="3.73" shape="601.65,398.50 601.65,401.50"/>
    </edge>
    <edge id=":2/1_0" function="internal">
        <lane id=":2/1_0_0" index="0" speed="13.89" length="7.85" shape="595.05,508.05 594.86,505.25 594.27,503.25 593.31,502.05 591.95,501.65"/>
    </edge>
    <edge id=":2/1_1" function="internal">
        <lane id=":2/1_1_0" index="0" speed="13.89" length="16.51" shape="595.05,508.05 595.57,502.77 596.70,498.79 597.83,495.42 598.35,491.95"/>
    </edge>
    <edge id=":2/1_2" function="internal">
        <lane id=":2/1_2_0" index="0" speed="13.89" length="4.74" shape="598.35,508.05 598.96,503.81 599.19,503.41"/>
    </edge>
    <edge id=":2/1_12" function="internal">
        <lane id=":2/1_12_0" index="0" speed="13.89" length="10.90" shape="599.19,503.41 600.78,500.77 603.81,498.96 608.05,498.35"/>
    </edge>
    <edge id=":2/1_3" function="internal">
        <lane id=":2/1_3_0" index="0" speed="13.89" length="7.85" shape="608.05,504.95 605.25,505.14 603.25,505.72 602.05,506.69 601.65,508.05"/>
    </edge>
    <edge id=":2/1_4" function="internal">
        <lane id=":2/1_4_0" index="0" speed="13.89" length="16.51" shape="608.05,504.95 602.77,504.43 598.79,503.30 595.42,502.17 591.95,501.65"/>
    </edge>
    <edge id=":2/1_5" function="internal">
        <lane id=":2/1_5_0" index="0" speed="13.89" length="4.74" shape="608.05,501.65 603.81,501.04 603.41,500.81"/>
    </edge>
    <edge id=":2/1_13" function="internal">
        <lane id=":2/1_13_0" index="0" speed="13.89" length="10.90" shape="603.41,500.81 600.77,499.22 598.96,496.19 598.35,491.95"/>
    </edge>
    <edge id=":2/1_6" function="internal">
        <lane id=":2/1_6_0" index="0" speed="13.89" length="7.85" shape="604.95,491.95 605.14,494.75 605.73,496.75 606.69,497.95 608.05,498.35"/>
    </edge>
    <edge id=":2/1_7" function="internal">
        <lane id=":2/1_7_0" index="0" speed="13.89" length="16.51" shape="604.95,491.95 604.43,497.23 603.30,501.21 602.17,504.58 601.65,508.05"/>
    </edge>
    <edge id=":2/1_8" function="internal">
        <lane id=":2/1_8_0" index="0" speed="13.89" length="4.74" shape="601.65,491.95 601.04,496.19 600.81,496.59"/>
    </edge>
    <edge id=":2/1_14" function="internal">
        <lane id=":2/1_14_0" index="0" speed="13.89" length="10.90" shape="600.81,496.59 599.22,499.23 596.19,501.04 591.95,501.65"/>
    </edge>
    <edge id=":2/1_9" function="internal">
        <lane id=":2/1_9_0" index="0" speed="13.89" length="7.85" shape="591.95,495.05 594.75,494.86 596.75,494.28 597.95,493.31 598.35,491.95"/>
    </edge>
    <edge id=":2/1_10" function="internal">
        <lane id=":2/1_10_0" index="0" speed="13.89" length="16.51" shape="591.95,495.05 597.23,495.57 601.21,496.70 604.58,497.83 608.05,498.35"/>
    </edge>
    <edge id=":2/1_11" function="internal">
        <lane id=":2/1_11_0" index="0" speed="13.89" length="4.74" shape="591.95,498.35 596.19,498.96 596.59,499.19"/>
    </edge>
    <edge id=":2/1_15" function="internal">
        <lane id=":2/1_15_0" index="0" speed="13.89" length="10.90" shape="596.59,499.19 599.23,500.78 601.04,503.81 601.65,508.05"/>
    </edge>
    <edge id=":2/1_to_1/1.-100_0" function="internal">
        <lane id=":2/1_to_1/1.-100_0_0" index="0" speed="13.89" length="3.73" shape="401.50,501.65 398.50,504.95"/>
        <lane id=":2/1_to_1/1.-100_0_1" index="1" speed="13.89" length="3.73" shape="401.50,501.65 398.50,501.65"/>
    </edge>
    <edge id=":2/1_to_2/0.-100_0" function="internal">
        <lane id=":2/1_to_2/0.-100_0_0" index="0" speed="13.89" length="3.73" shape="598.35,101.50 595.05,98.50"/>
        <lane id=":2/1_to_2/0.-100_0_1" index="1" speed="13.89" length="3.73" shape="598.35,101.50 598.35,98.50"/>
    </edge>
    <edge id=":2/1_to_2/2.-100_0" function="internal">
        <lane id=":2/1_to_2/2.-100_0_0" index="0" speed="13.89" length="3.73" shape="601.65,898.50 604.95,901.50"/>
        <lane id=":2/1_to_2/2.-100_0_1" index="1" speed="13.89" length="3.73" shape="601.65,898.50 601.65,901.50"/>
    </edge>
    <edge id=":2/1_to_3/1.-100_0" function="internal">
        <lane id=":2/1_to_3/1.-100_0_0" index="0" speed="13.89" length="3.73" shape="798.50,498.35 801.50,495.05"/>
        <lane id=":2/1_to_3/1.-100_0_1" index="1" speed="13.89" length="3.73" shape="798.50,498.35 801.50,498.35"/>
    </edge>
    <edge id=":2/2_0" function="internal">
        <lane id=":2/2_0_0" index="0" speed="13.89" length="4.82" shape="601.65,1000.00 600.82,1001.24 600.00,1001.65 599.17,1001.24 598.35,1000.00"/>
    </edge>
    <edge id=":2/2_to_2/1.-100_0" function="internal">
        <lane id=":2/2_to_2/1.-100_0_0" index="0" speed="13.89" length="3.73" shape="598.35,601.50 595.05,598.50"/>
        <lane id=":2/2_to_2/1.-100_0_1" index="1" speed="13.89" length="3.73" shape="598.35,601.50 598.35,598.50"/>
    </edge>
    <edge id=":3/0_0" function="internal">
        <lane id=":3/0_0_0" index="0" speed="13.89" length="4.82" shape="898.35,0.00 899.18,-1.24 900.00,-1.65 900.83,-1.24 901.65,0.00"/>
    </edge>
    <edge id=":3/0_to_3/1.-100_0" function="internal">
        <lane id=":3/0_to_3/1.-100_0_0" index="0" speed="13.89" length="3.73" shape="901.65,398.50 904.95,401.50"/>
        <lane id=":3/0_to_3/1.-100_0_1" index="1" speed="13.89" length="3.73" shape="901.65,398.50 901.65,401.50"/>
    </edge>
    <edge id=":3/1_0" function="internal">
        <lane id=":3/1_0_0" index="0" speed="13.89" length="7.85" shape="895.05,508.05 894.86,505.25 894.27,503.25 893.31,502.05 891.95,501.65"/>
    </edge>
    <edge id=":3/1_1" function="internal">
        <lane id=":3/1_1_0" index="0" speed="13.89" length="16.51" shape="895.05,508.05 895.57,502.77 896.70,498.79 897.83,495.42 898.35,491.95"/>
    </edge>
    <edge id=":3/1_2" function="internal">
        <lane id=":3/1_2_0" index="0" speed="13.89" length="4.74" shape="898.35,508.05 898.96,503.81 899.19,503.41"/>
    </edge>
    <edge id=":3/1_12" function="internal">
        <lane id=":3/1_12_0" index="0" speed="13.89" length="10.90" shape="899.19,503.41 900.78,500.77 903.81,498.96 908.05,498.35"/>
    </edge>
    <edge id=":3/1_3" function="internal">
        <lane id=":3/1_3_0" index="0" speed="13.89" length="7.85" shape="908.05,504.95 905.25,505.14 903.25,505.72 902.05,506.69 901.65,508.05"/>
    </edge>
    <edge id=":3/1_4" function="internal">
        <lane id=":3/1_4_0" index="0" speed="13.89" length="16.51" shape="908.05,504.95 902.77,504.43 898.79,503.30 895.42,502.17 891.95,501.65"/>
    </edge>
    <edge id=":3/1_5" function="internal">
        <lane id=":3/1_5_0" index="0" speed="13.89" length="4.74" shape="908.05,501.65 903.81,501.04 903.41,500.81"/>
    </edge>
    <edge id=":3/1_13" function="internal">
        <lane id=":3/1_13_0" index="0" speed="13.89" length="10.90" shape="903.41,500.81 900.77,499.22 898.96,496.19 898.35,491.95"/>
    </edge>
    <edge id=":3/1_6" function="internal">
        <lane id=":3/1_6_0" index="0" speed="13.89" length="7.85" shape="904.95,491.95 905.14,494.75 905.73,496.75 906.69,497.95 908.05,498.35"/>
    </edge>
    <edge id=":3/1_7" function="internal">
        <lane id=":3/1_7_0" index="0" speed="13.89" length="16.51" shape="904.95,491.95 904.43,497.23 903.30,501.21 902.17,504.58 901.65,508.05"/>
    </edge>
    <edge id=":3/1_8" function="internal">
        <lane id=":3/1_8_0" index="0" speed="13.89" length="4.74" shape="901.65,491.95 901.04,496.19 900.81,496.59"/>
    </edge>
    <edge id=":3/1_14" function="internal">
        <lane id=":3/1_14_0" index="0" speed="13.89" length="10.90" shape="900.81,496.59 899.22,499.23 896.19,501.04 891.95,501.65"/>
    </edge>
    <edge id=":3/1_9" function="internal">
        <lane id=":3/1_9_0" index="0" speed="13.89" length="7.85" shape="891.95,495.05 894.75,494.86 896.75,494.28 897.95,493.31 898.35,491.95"/>
    </edge>
    <edge id=":3/1_10" function="internal">
        <lane id=":3/1_10_0" index="0" speed="13.89" length="16.51" shape="891.95,495.05 897.23,495.57 901.21,496.70 904.58,497.83 908.05,498.35"/>
    </edge>
    <edge id=":3/1_11" function="internal">
        <lane id=":3/1_11_0" index="0" speed="13.89" length="4.74" shape="891.95,498.35 896.19,498.96 896.59,499.19"/>
    </edge>
    <edge id=":3/1_15" function="internal">
        <lane id=":3/1_15_0" index="0" speed="13.89" length="10.90" shape="896.59,499.19 899.23,500.78 901.04,503.81 901.65,508.05"/>
    </edge>
    <edge id=":3/1_to_2/1.-100_0" function="internal">
        <lane id=":3/1_to_2/1.-100_0_0" index="0" speed="13.89" length="3.73" shape="701.50,501.65 698.50,504.95"/>
        <lane id=":3/1_to_2/1.-100_0_1" index="1" speed="13.89" length="3.73" shape="701.50,501.65 698.50,501.65"/>
    </edge>
    <edge id=":3/1_to_3/0.-100_0" function="internal">
        <lane id=":3/1_to_3/0.-100_0_0" index="0" speed="13.89" length="3.73" shape="898.35,101.50 895.05,98.50"/>
        <lane id=":3/1_to_3/0.-100_0_1" index="1" speed="13.89" length="3.73" shape="898.35,101.50 898.35,98.50"/>
    </edge>
    <edge id=":3/1_to_3/2.-100_0" function="internal">
        <lane id=":3/1_to_3/2.-100_0_0" index="0" speed="13.89" length="3.73" shape="901.65,898.50 904.95,901.50"/>
        <lane id=":3/1_to_3/2.-100_0_1" index="1" speed="13.89" length="3.73" shape="901.65,898.50 901.65,901.50"/>
    </edge>
    <edge id=":3/1_to_4/1.-100_0" function="internal">
        <lane id=":3/1_to_4/1.-100_0_0" index="0" speed="13.89" length="3.73" shape="1098.50,498.35 1101.50,495.05"/>
        <lane id=":3/1_to_4/1.-100_0_1" index="1" speed="13.89" length="3.73" shape="1098.50,498.35 1101.50,498.35"/>
    </edge>
    <edge id=":3/2_0" function="internal">
        <lane id=":3/2_0_0" index="0" speed="13.89" length="4.82" shape="901.65,1000.00 900.82,1001.24 900.00,1001.65 899.17,1001.24 898.35,1000.00"/>
    </edge>
    <edge id=":3/2_to_3/1.-100_0" function="internal">
        <lane id=":3/2_to_3/1.-100_0_0" index="0" speed="13.89" length="3.73" shape="898.35,601.50 895.05,598.50"/>
        <lane id=":3/2_to_3/1.-100_0_1" index="1" speed="13.89" length="3.73" shape="898.35,601.50 898.35,598.50"/>
    </edge>
    <edge id=":4/0_0" function="internal">
        <lane id=":4/0_0_0" index="0" speed="13.89" length="4.82" shape="1198.35,0.00 1199.18,-1.24 1200.00,-1.65 1200.83,-1.24 1201.65,0.00"/>
    </edge>
    <edge id=":4/0_to_4/1.-100_0" function="internal">
        <lane id=":4/0_to_4/1.-100_0_0" index="0" speed="13.89" length="3.73" shape="1201.65,398.50 1204.95,401.50"/>
        <lane id=":4/0_to_4/1.-100_0_1" index="1" speed="13.89" length="3.73" shape="1201.65,398.50 1201.65,401.50"/>
    </edge>
    <edge id=":4/1_0" function="internal">
        <lane id=":4/1_0_0" index="0" speed="13.89" length="7.85" shape="1195.05,508.05 1194.86,505.25 1194.27,503.25 1193.31,502.05 1191.95,501.65"/>
    </edge>
    <edge id=":4/1_1" function="internal">
        <lane id=":4/1_1_0" index="0" speed="13.89" length="16.51" shape="1195.05,508.05 1195.57,502.77 1196.70,498.79 1197.83,495.42 1198.35,491.95"/>
    </edge>
    <edge id=":4/1_2" function="internal">
        <lane id=":4/1_2_0" index="0" speed="13.89" length="4.74" shape="1198.35,508.05 1198.96,503.81 1199.19,503.41"/>
    </edge>
    <edge id=":4/1_12" function="internal">
        <lane id=":4/1_12_0" index="0" speed="13.89" length="10.90" shape="1199.19,503.41 1200.77,500.77 1203.81,498.96 1208.05,498.35"/>
    </edge>
    <edge id=":4/1_3" function="internal">
        <lane id=":4/1_3_0" index="0" speed="13.89" length="7.85" shape="1208.05,504.95 1205.25,505.14 1203.25,505.72 1202.05,506.69 1201.65,508.05"/>
    </edge>
    <edge id=":4/1_4" function="internal">
        <lane id=":4/1_4_0" index="0" speed="13.89" length="16.51" shape="1208.05,504.95 1202.77,504.43 1198.79,503.30 1195.42,502.17 1191.95,501.65"/>
    </edge>
    <edge id=":4/1_5" function="internal">
        <lane id=":4/1_5_0" index="0" speed="13.89" length="4.74" shape="1208.05,501.65 1203.81,501.04 1203.41,500.81"/>
    </edge>
    <edge id=":4/1_13" function="internal">
        <lane id=":4/1_13_0" index="0" speed="13.89" length="10.90" shape="1203.41,500.81 1200.78,499.22 1198.96,496.19 1198.35,491.95"/>
    </edge>
    <edge id=":4/1_6" function="internal">
        <lane id=":4/1_6_0" index="0" speed="13.89" length="7.85" shape="1204.95,491.95 1205.14,494.75 1205.73,496.75 1206.69,497.95 1208.05,498.35"/>
    </edge>
    <edge id=":4/1_7" function="internal">
        <lane id=":4/1_7_0" index="0" speed="13.89" length="16.51" shape="1204.95,491.95 1204.43,497.23 1203.30,501.21 1202.17,504.58 1201.65,508.05"/>
    </edge>
    <edge id=":4/1_8" function="internal">
        <lane id=":4/1_8_0" index="0" speed="13.89" length="4.74" shape="1201.65,491.95 1201.04,496.19 1200.81,496.59"/>
    </edge>
    <edge id=":4/1_14" function="internal">
        <lane id=":4/1_14_0" index="0" speed="13.89" length="10.90" shape="1200.81,496.59 1199.23,499.23 1196.19,501.04 1191.95,501.65"/>
    </edge>
    <edge id=":4/1_9" function="internal">
        <lane id=":4/1_9_0" index="0" speed="13.89" length="7.85" shape="1191.95,495.05 1194.75,494.86 1196.75,494.28 1197.95,493.31 1198.35,491.95"/>
    </edge>
    <edge id=":4/1_10" function="internal">
        <lane id=":4/1_10_0" index="0" speed="13.89" length="16.51" shape="1191.95,495.05 1197.23,495.57 1201.21,496.70 1204.58,497.83 1208.05,498.35"/>
    </edge>
    <edge id=":4/1_11" function="internal">
        <lane id=":4/1_11_0" index="0" speed="13.89" length="4.74" shape="1191.95,498.35 1196.19,498.96 1196.59,499.19"/>
    </edge>
    <edge id=":4/1_15" function="internal">
        <lane id=":4/1_15_0" index="0" speed="13.89" length="10.90" shape="1196.59,499.19 1199.22,500.78 1201.04,503.81 1201.65,508.05"/>
    </edge>
    <edge id=":4/1_to_3/1.-100_0" function="internal">
        <lane id=":4/1_to_3/1.-100_0_0" index="0" speed="13.89" length="3.73" shape="1001.50,501.65 998.50,504.95"/>
        <lane id=":4/1_to_3/1.-100_0_1" index="1" speed="13.89" length="3.73" shape="1001.50,501.65 998.50,501.65"/>
    </edge>
    <edge id=":4/1_to_4/0.-100_0" function="internal">
        <lane id=":4/1_to_4/0.-100_0_0" index="0" speed="13.89" length="3.73" shape="1198.35,101.50 1195.05,98.50"/>
        <lane id=":4/1_to_4/0.-100_0_1" index="1" speed="13.89" length="3.73" shape="1198.35,101.50 1198.35,98.50"/>
    </edge>
    <edge id=":4/1_to_4/2.-100_0" function="internal">
        <lane id=":4/1_to_4/2.-100_0_0" index="0" speed="13.89" length="3.73" shape="1201.65,898.50 1204.95,901.50"/>
        <lane id=":4/1_to_4/2.-100_0_1" index="1" speed="13.89" length="3.73" shape="1201.65,898.50 1201.65,901.50"/>
    </edge>
    <edge id=":4/1_to_5/1.-100_0" function="internal">
        <lane id=":4/1_to_5/1.-100_0_0" index="0" speed="13.89" length="3.73" shape="1398.50,498.35 1401.50,495.05"/>
        <lane id=":4/1_to_5/1.-100_0_1" index="1" speed="13.89" length="3.73" shape="1398.50,498.35 1401.50,498.35"/>
    </edge>
    <edge id=":4/2_0" function="internal">
        <lane id=":4/2_0_0" index="0" speed="13.89" length="4.82" shape="1201.65,1000.00 1200.82,1001.24 1200.00,1001.65 1199.18,1001.24 1198.35,1000.00"/>
    </edge>
    <edge id=":4/2_to_4/1.-100_0" function="internal">
        <lane id=":4/2_to_4/1.-100_0_0" index="0" speed="13.89" length="3.73" shape="1198.35,601.50 1195.05,598.50"/>
        <lane id=":4/2_to_4/1.-100_0_1" index="1" speed="13.89" length="3.73" shape="1198.35,601.50 1198.35,598.50"/>
    </edge>
    <edge id=":5/0_0" function="internal">
        <lane id=":5/0_0_0" index="0" speed="13.89" length="4.82" shape="1498.35,0.00 1499.18,-1.24 1500.00,-1.65 1500.83,-1.24 1501.65,0.00"/>
    </edge>
    <edge id=":5/0_to_5/1.-100_0" function="internal">
        <lane id=":5/0_to_5/1.-100_0_0" index="0" speed="13.89" length="3.73" shape="1501.65,398.50 1504.95,401.50"/>
        <lane id=":5/0_to_5/1.-100_0_1" index="1" speed="13.89" length="3.73" shape="1501.65,398.50 1501.65,401.50"/>
    </edge>
    <edge id=":5/1_0" function="internal">
        <lane id=":5/1_0_0" index="0" speed="13.89" length="7.85" shape="1495.05,508.05 1494.86,505.25 1494.27,503.25 1493.31,502.05 1491.95,501.65"/>
    </edge>
    <edge id=":5/1_1" function="internal">
        <lane id=":5/1_1_0" index="0" speed="13.89" length="16.51" shape="1495.05,508.05 1495.57,502.77 1496.70,498.79 1497.83,495.42 1498.35,491.95"/>
    </edge>
    <edge id=":5/1_2" function="internal">
        <lane id=":5/1_2_0" index="0" speed="13.89" length="4.74" shape="1498.35,508.05 1498.96,503.81 1499.19,503.41"/>
    </edge>
    <edge id=":5/1_12" function="internal">
        <lane id=":5/1_12_0" index="0" speed="13.89" length="10.90" shape="1499.19,503.41 1500.77,500.77 1503.81,498.96 1508.05,498.35"/>
    </edge>
    <edge id=":5/1_3" function="internal">
        <lane id=":5/1_3_0" index="0" speed="13.89" length="7.85" shape="1508.05,504.95 1505.25,505.14 1503.25,505.72 1502.05,506.69 1501.65,508.05"/>
    </edge>
    <edge id=":5/1_4" function="internal">
        <lane id=":5/1_4_0" index="0" speed="13.89" length="16.51" shape="1508.05,504.95 1502.77,504.43 1498.79,503.30 1495.42,502.17 1491.95,501.65"/>
    </edge>
    <edge id=":5/1_5" function="internal">
        <lane id=":5/1_5_0" index="0" speed="13.89" length="4.74" shape="1508.05,501.65 1503.81,501.04 1503.41,500.81"/>
    </edge>
    <edge id=":5/1_13" function="internal">
        <lane id=":5/1_13_0" index="0" speed="13.89" length="10.90" shape="1503.41,500.81 1500.78,499.22 1498.96,496.19 1498.35,491.95"/>
    </edge>
    <edge id=":5/1_6" function="internal">
        <lane id=":5/1_6_0" index="0" speed="13.89" length="7.85" shape="1504.95,491.95 1505.14,494.75 1505.73,496.75 1506.69,497.95 1508.05,498.35"/>
    </edge>
    <edge id=":5/1_7" function="internal">
        <lane id=":5/1_7_0" index="0" speed="13.89" length="16.51" shape="1504.95,491.95 1504.43,497.23 1503.30,501.21 1502.17,504.58 1501.65,508.05"/>
    </edge>
    <edge id=":5/1_8" function="internal">
        <lane id=":5/1_8_0" index="0" speed="13.89" length="4.74" shape="1501.65,491.95 1501.04,496.19 1500.81,496.59"/>
    </edge>
    <edge id=":5/1_14" function="internal">
        <lane id=":5/1_14_0" index="0" speed="13.89" length="10.90" shape="1500.81,496.59 1499.23,499.23 1496.19,501.04 1491.95,501.65"/>
    </edge>
    <edge id=":5/1_9" function="internal">
        <lane id=":5/1_9_0" index="0" speed="13.89" length="7.85" shape="1491.95,495.05 1494.75,494.86 1496.75,494.28 1497.95,493.31 1498.35,491.95"/>
    </edge>
    <edge id=":5/1_10" function="internal">
        <lane id=":5/1_10_0" index="0" speed="13.89" length="16.51" shape="1491.95,495.05 1497.23,495.57 1501.21,496.70 1504.58,497.83 1508.05,498.35"/>
    </edge>
    <edge id=":5/1_11" function="internal">
        <lane id=":5/1_11_0" index="0" speed="13.89" length="4.74" shape="1491.95,498.35 1496.19,498.96 1496.59,499.19"/>
    </edge>
    <edge id=":5/1_15" function="internal">
        <lane id=":5/1_15_0" index="0" speed="13.89" length="10.90" shape="1496.59,499.19 1499.22,500.78 1501.04,503.81 1501.65,508.05"/>
    </edge>
    <edge id=":5/1_to_4/1.-100_0" function="internal">
        <lane id=":5/1_to_4/1.-100_0_0" index="0" speed="13.89" length="3.73" shape="1301.50,501.65 1298.50,504.95"/>
        <lane id=":5/1_to_4/1.-100_0_1" index="1" speed="13.89" length="3.73" shape="1301.50,501.65 1298.50,501.65"/>
    </edge>
    <edge id=":5/1_to_5/0.-100_0" function="internal">
        <lane id=":5/1_to_5/0.-100_0_0" index="0" speed="13.89" length="3.73" shape="1498.35,101.50 1495.05,98.50"/>
        <lane id=":5/1_to_5/0.-100_0_1" index="1" speed="13.89" length="3.73" shape="1498.35,101.50 1498.35,98.50"/>
    </edge>
    <edge id=":5/1_to_5/2.-100_0" function="internal">
        <lane id=":5/1_to_5/2.-100_0_0" index="0" speed="13.89" length="3.73" shape="1501.65,898.50 1504.95,901.50"/>
        <lane id=":5/1_to_5/2.-100_0_1" index="1" speed="13.89" length="3.73" shape="1501.65,898.50 1501.65,901.50"/>
    </edge>
    <edge id=":5/1_to_6/1.-100_0" function="internal">
        <lane id=":5/1_to_6/1.-100_0_0" index="0" speed="13.89" length="3.73" shape="1698.50,498.35 1701.50,495.05"/>
        <lane id=":5/1_to_6/1.-100_0_1" index="1" speed="13.89" length="3.73" shape="1698.50,498.35 1701.50,498.35"/>
    </edge>
    <edge id=":5/2_0" function="internal">
        <lane id=":5/2_0_0" index="0" speed="13.89" length="4.82" shape="1501.65,1000.00 1500.82,1001.24 1500.00,1001.65 1499.18,1001.24 1498.35,1000.00"/>
    </edge>
    <edge id=":5/2_to_5/1.-100_0" function="internal">
        <lane id=":5/2_to_5/1.-100_0_0" index="0" speed="13.89" length="3.73" shape="1498.35,601.50 1495.05,598.50"/>
        <lane id=":5/2_to_5/1.-100_0_1" index="1" speed="13.89" length="3.73" shape="1498.35,601.50 1498.35,598.50"/>
    </edge>
    <edge id=":6/1_0" function="internal">
        <lane id=":6/1_0_0" index="0" speed="13.89" length="4.82" shape="1800.00,498.35 1801.24,499.18 1801.65,500.00 1801.24,500.82 1800.00,501.65"/>
    </edge>
    <edge id=":6/1_to_5/1.-100_0" function="internal">
        <lane id=":6/1_to_5/1.-100_0_0" index="0" speed="13.89" length="3.73" shape="1601.50,501.65 1598.50,504.95"/>
        <lane id=":6/1_to_5/1.-100_0_1" index="1" speed="13.89" length="3.73" shape="1601.50,501.65 1598.50,501.65"/>
    </edge>

    <edge id="0/1_to_1/1" from="0/1" to="0/1_to_1/1.-100" priority="-1">
        <lane id="0/1_to_1/1_0" index="0" speed="13.89" length="198.50" shape="0.00,498.35 198.50,498.35"/>
    </edge>
    <edge id="0/1_to_1/1.-100" from="0/1_to_1/1.-100" to="1/1" priority="-1">
        <lane id="0/1_to_1/1.-100_0" index="0" speed="13.89" length="90.45" shape="201.50,495.05 291.95,495.05"/>
        <lane id="0/1_to_1/1.-100_1" index="1" speed="13.89" length="90.45" shape="201.50,498.35 291.95,498.35"/>
    </edge>
    <edge id="1/0_to_1/1" from="1/0" to="1/0_to_1/1.-100" priority="-1">
        <lane id="1/0_to_1/1_0" index="0" speed="13.89" length="398.50" shape="301.65,0.00 301.65,398.50"/>
    </edge>
    <edge id="1/0_to_1/1.-100" from="1/0_to_1/1.-100" to="1/1" priority="-1">
        <lane id="1/0_to_1/1.-100_0" index="0" speed="13.89" length="90.45" shape="304.95,401.50 304.95,491.95"/>
        <lane id="1/0_to_1/1.-100_1" index="1" speed="13.89" length="90.45" shape="301.65,401.50 301.65,491.95"/>
    </edge>
    <edge id="1/1_to_0/1" from="1/1" to="1/1_to_0/1.-100" priority="-1">
        <lane id="1/1_to_0/1_0" index="0" speed="13.89" length="190.45" shape="291.95,501.65 101.50,501.65"/>
    </edge>
    <edge id="1/1_to_0/1.-100" from="1/1_to_0/1.-100" to="0/1" priority="-1">
        <lane id="1/1_to_0/1.-100_0" index="0" speed="13.89" length="98.50" shape="98.50,504.95 0.00,504.95"/>