<?xml version="1.0" encoding="UTF-8"?>
<net version="1.6" junctionCornerDetail="5" rectangularLaneCut="true" limitTurnSpeed="5.50" xmlns:xsi="http://www.w3.org/2001/XMLSchema-instance" xsi:noNamespaceSchemaLocation="http://sumo.dlr.de/xsd/net_file.xsd">

    <location netOffset="270.80,200.32" convBoundary="0.00,0.00,473.11,399.44" origBoundary="-270.80,-200.32,202.31,199.12" projParameter="!"/>

    <type id="bidirectional" priority="1" speed="1.39" disallow="pedestrian tram rail_urban rail rail_electric rail_fast ship" width="3.65"/>
    <type id="biking" priority="-1" speed="5.56" allow="bicycle" width="1.50"/>
    <type id="border" priority="0" speed="1.39" disallow="all" discard="1" width="0.10"/>
    <type id="driving" priority="1" speed="13.89" disallow="pedestrian tram rail_urban rail rail_electric rail_fast ship" width="3.65"/>
    <type id="entry" priority="1" speed="22.22" disallow="pedestrian tram rail_urban rail rail_electric rail_fast ship" width="3.65"/>
    <type id="exit" priority="1" speed="22.22" disallow="pedestrian tram rail_urban rail rail_electric rail_fast ship" width="3.65"/>
    <type id="median" priority="0" speed="1.39" disallow="all" discard="1" width="0.10"/>
    <type id="mwyEntry" priority="1" speed="22.22" allow="private emergency authority army vip passenger hov taxi bus coach delivery truck trailer motorcycle evehicle custom1 custom2" width="3.65"/>
    <type id="mwyExit" priority="1" speed="22.22" allow="private emergency authority army vip passenger hov taxi bus coach delivery truck trailer motorcycle evehicle custom1 custom2" width="3.65"/>
    <type id="none" priority="0" speed="1.39" disallow="all" discard="1" width="1.00"/>
    <type id="offRamp" priority="1" speed="22.22" allow="private emergency authority army vip passenger hov taxi bus coach delivery truck trailer motorcycle evehicle custom1 custom2" width="3.65"/>
    <type id="onRamp" priority="1" speed="22.22" allow="private emergency authority army vip passenger hov taxi bus coach delivery truck trailer motorcycle evehicle custom1 custom2" width="3.65"/>
    <type id="parking" priority="1" speed="1.39" disallow="pedestrian tram rail_urban rail rail_electric rail_fast ship" width="2.50"/>
    <type id="rail" priority="3" speed="33.33" allow="rail_urban rail rail_electric rail_fast" width="3.65"/>
    <type id="restricted" priority="0" speed="13.89" disallow="all" width="3.65"/>
    <type id="roadWorks" priority="0" speed="1.39" allow="authority" width="3.65"/>
    <type id="shoulder" priority="0" speed="1.39" disallow="all" discard="1" width="1.00"/>
    <type id="sidewalk" priority="-2" speed="2.78" allow="pedestrian" width="2.50"/>
    <type id="special1" priority="1" speed="22.22" allow="custom1" discard="1" width="3.65"/>
    <type id="special2" priority="1" speed="22.22" allow="custom2" discard="1" width="3.65"/>
    <type id="special3" priority="1" speed="22.22" allow="custom1 custom2" discard="1" width="3.65"/>
    <type id="stop" priority="1" speed="13.89" disallow="pedestrian tram rail_urban rail rail_electric rail_fast ship" width="3.65"/>
    <type id="tram" priority="2" speed="13.89" allow="tram" width="3.65"/>

    <edge id=":1050_0" function="internal">
        <lane id=":1050_0_0" index="0" disallow="pedestrian tram rail_urban rail rail_electric rail_fast ship" speed="8.47" length="15.78" width="3.50" shape="161.65,56.12,0.06 156.92,56.68,0.04 153.54,58.32,0.03 151.49,61.03,0.01 150.78,64.82"/>
    </edge>
    <edge id=":1050_1" function="internal">
        <lane id=":1050_1_0" index="0" disallow="pedestrian tram rail_urban rail rail_electric rail_fast ship" speed="13.89" length="32.27" width="3.50" shape="161.65,56.12,0.06 129.38,56.27,0.06"/>
        <lane id=":1050_1_1" index="1" disallow="pedestrian tram rail_urban rail rail_electric rail_fast ship" speed="13.89" length="32.27" width="3.50" shape="161.63,52.62,0.06 129.36,52.77,0.06"/>
    </edge>
    <edge id=":1050_3" function="internal">
        <lane id=":1050_3_0" index="0" disallow="pedestrian tram rail_urban rail rail_electric rail_fast ship" speed="13.89" length="32.27" width="3.50" shape="129.33,45.77,0.06 161.60,45.62,0.06"/>
        <lane id=":1050_3_1" index="1" disallow="pedestrian tram rail_urban rail rail_electric rail_fast ship" speed="13.89" length="32.27" width="3.50" shape="129.34,49.27,0.06 161.62,49.12,0.06"/>
    </edge>
    <edge id=":1050_5" function="internal">
        <lane id=":1050_5_0" index="0" disallow="pedestrian tram rail_urban rail rail_electric rail_fast ship" speed="10.84" length="9.63" width="3.50" shape="129.34,49.27,0.06 137.24,50.21,0.04 138.73,50.97,0.04"/>
    </edge>
    <edge id=":1050_8" function="internal">
        <lane id=":1050_8_0" index="0" disallow="pedestrian tram rail_urban rail rail_electric rail_fast ship" speed="10.84" length="17.46" width="3.50" shape="138.73,50.97,0.04 142.87,53.11,0.03 146.21,57.97,0.01 147.28,64.79"/>
    </edge>
    <edge id=":1050_6" function="internal">
        <lane id=":1050_6_0" index="0" disallow="pedestrian tram rail_urban rail rail_electric rail_fast ship" speed="8.38" length="15.71" width="3.50" shape="140.28,64.73 139.63,61.01,0.01 137.59,58.36,0.03 134.18,56.78,0.04 129.38,56.27,0.06"/>
    </edge>
    <edge id=":1050_7" function="internal">
        <lane id=":1050_7_0" index="0" disallow="pedestrian tram rail_urban rail rail_electric rail_fast ship" speed="10.92" length="26.94" width="3.50" shape="143.78,64.76 144.95,57.95,0.01 148.31,53.07,0.03 153.87,50.12,0.04 161.62,49.12,0.06"/>
    </edge>
    <edge id=":1070_0" function="internal">
        <lane id=":1070_0_0" index="0" disallow="pedestrian tram rail_urban rail rail_electric rail_fast ship" speed="7.52" length="12.32" width="3.50" shape="295.38,124.20,0.00 294.95,120.49,0.00 293.68,117.84,0.00 291.57,116.25,0.00 288.61,115.73"/>
    </edge>
    <edge id=":1070_1" function="internal">
        <lane id=":1070_1_0" index="0" disallow="pedestrian tram rail_urban rail rail_electric rail_fast ship" speed="13.89" length="27.82" width="3.50" shape="295.38,124.20,0.00 295.37,96.38,0.00"/>
        <lane id=":1070_1_1" index="1" disallow="pedestrian tram rail_urban rail rail_electric rail_fast ship" speed="13.89" length="27.82" width="3.50" shape="298.88,124.20,0.00 298.87,96.38,0.00"/>
    </edge>
    <edge id=":1070_3" function="internal">
        <lane id=":1070_3_0" index="0" disallow="pedestrian tram rail_urban rail rail_electric rail_fast ship" speed="10.50" length="8.67" width="3.50" shape="298.88,124.20,0.00 299.83,117.19,0.00 300.62,115.81,0.00"/>
    </edge>
    <edge id=":1070_16" function="internal">
        <lane id=":1070_16_0" index="0" disallow="pedestrian tram rail_urban rail rail_electric rail_fast ship" speed="10.50" length="16.56" width="3.50" shape="300.62,115.81,0.00 302.70,112.20,0.00 307.48,109.22,0.00 314.18,108.27"/>
    </edge>
    <edge id=":1070_4" function="internal">
        <lane id=":1070_4_0" index="0" disallow="pedestrian tram rail_urban rail rail_electric rail_fast ship" speed="7.92" length="13.88" width="3.50" shape="314.13,115.27 310.52,115.81,0.00 307.94,117.47,0.00 306.39,120.27,0.00 305.88,124.20,0.00"/>
    </edge>
    <edge id=":1070_5" function="internal">
        <lane id=":1070_5_0" index="0" disallow="pedestrian tram rail_urban rail rail_electric rail_fast ship" speed="13.89" length="25.54" width="3.50" shape="314.13,115.27 288.61,115.73"/>
        <lane id=":1070_5_1" index="1" disallow="pedestrian tram rail_urban rail rail_electric rail_fast ship" speed="13.89" length="25.54" width="3.50" shape="314.15,111.77 288.60,112.23"/>
    </edge>
    <edge id=":1070_7" function="internal">
        <lane id=":1070_7_0" index="0" disallow="pedestrian tram rail_urban rail rail_electric rail_fast ship" speed="10.45" length="24.69" width="3.50" shape="314.15,111.77 307.47,110.77,0.00 302.69,107.87,0.00 299.82,103.07,0.00 298.87,96.38,0.00"/>
    </edge>
    <edge id=":1070_8" function="internal">
        <lane id=":1070_8_0" index="0" disallow="pedestrian tram rail_urban rail rail_electric rail_fast ship" speed="7.86" length="13.47" width="3.50" shape="305.87,96.38,0.00 306.39,100.03,0.00 307.95,102.64,0.00 310.56,104.22,0.00 314.20,104.77"/>
    </edge>
    <edge id=":1070_9" function="internal">
        <lane id=":1070_9_0" index="0" disallow="pedestrian tram rail_urban rail rail_electric rail_fast ship" speed="13.89" length="27.82" width="3.50" shape="305.87,96.38,0.00 305.88,124.20,0.00"/>
        <lane id=":1070_9_1" index="1" disallow="pedestrian tram rail_urban rail rail_electric rail_fast ship" speed="13.89" length="27.82" width="3.50" shape="302.37,96.38,0.00 302.38,124.20,0.00"/>
    </edge>
    <edge id=":1070_11" function="internal">
        <lane id=":1070_11_0" index="0" disallow="pedestrian tram rail_urban rail rail_electric rail_fast ship" speed="10.26" length="8.90" width="3.50" shape="302.37,96.38,0.00 301.51,103.31,0.00 300.62,105.01,0.00"/>
    </edge>
    <edge id=":1070_17" function="internal">
        <lane id=":1070_17_0" index="0" disallow="pedestrian tram rail_urban rail rail_electric rail_fast ship" speed="10.26" length="14.99" width="3.50" shape="300.62,105.01,0.00 298.93,108.26,0.00 294.63,111.23,0.00 288.60,112.23"/>
    </edge>
    <edge id=":1070_12" function="internal">
        <lane id=":1070_12_0" index="0" disallow="pedestrian tram rail_urban rail rail_electric rail_fast ship" speed="7.61" length="12.64" width="3.50" shape="288.59,105.23 291.56,104.67,0.00 293.67,103.01,0.00 294.94,100.25,0.00 295.37,96.38,0.00"/>
    </edge>
    <edge id=":1070_13" function="internal">
        <lane id=":1070_13_0" index="0" disallow="pedestrian tram rail_urban rail rail_electric rail_fast ship" speed="13.89" length="25.60" width="3.50" shape="288.59,105.23 314.20,104.77"/>
        <lane id=":1070_13_1" index="1" disallow="pedestrian tram rail_urban rail rail_electric rail_fast ship" speed="13.89" length="25.60" width="3.50" shape="288.60,108.73 314.18,108.27"/>
    </edge>
    <edge id=":1070_15" function="internal">
        <lane id=":1070_15_0" index="0" disallow="pedestrian tram rail_urban rail rail_electric rail_fast ship" speed="10.19" length="23.60" width="3.50" shape="288.60,108.73 294.62,109.69,0.00 298.93,112.59,0.00 301.51,117.42,0.00 302.38,124.20,0.00"/>
    </edge>
    <edge id=":1148_0" function="internal">
        <lane id=":1148_0_0" index="0" disallow="pedestrian tram rail_urban rail rail_electric rail_fast ship" speed="13.89" length="23.20" width="3.50" shape="299.00,360.06,0.00 298.38,336.87,0.00"/>
        <lane id=":1148_0_1" index="1" disallow="pedestrian tram rail_urban rail rail_electric rail_fast ship" speed="13.89" length="23.20" width="3.50" shape="302.50,359.97,0.00 301.88,336.78,0.00"/>
    </edge>
    <edge id=":1148_2" function="internal">
        <lane id=":1148_2_0" index="0" disallow="pedestrian tram rail_urban rail rail_electric rail_fast ship" speed="7.94" length="14.28" width="3.50" shape="317.00,349.82,0.04 313.62,350.40,0.03 311.24,352.25,0.02 309.86,355.38,0.01 309.50,359.78,0.00"/>
    </edge>
    <edge id=":1148_3" function="internal">
        <lane id=":1148_3_0" index="0" disallow="pedestrian tram rail_urban rail rail_electric rail_fast ship" speed="8.18" length="14.33" width="3.50" shape="308.88,336.59,0.00 309.48,340.81,0.01 311.05,343.83,0.02 313.57,345.67,0.03 317.05,346.32,0.04"/>
    </edge>
    <edge id=":1148_4" function="internal">
        <lane id=":1148_4_0" index="0" disallow="pedestrian tram rail_urban rail rail_electric rail_fast ship" speed="13.89" length="23.20" width="3.50" shape="308.88,336.59,0.00 309.50,359.78,0.00"/>
        <lane id=":1148_4_1" index="1" disallow="pedestrian tram rail_urban rail rail_electric rail_fast ship" speed="13.89" length="23.20" width="3.50" shape="305.38,336.69,0.00 306.00,359.88,0.00"/>
    </edge>
    <edge id=":1162_0" function="internal">
        <lane id=":1162_0_0" index="0" disallow="pedestrian tram rail_urban rail rail_electric rail_fast ship" speed="13.89" length="23.21" width="3.50" shape="295.35,68.75,0.00 295.35,45.54,0.00"/>
        <lane id=":1162_0_1" index="1" disallow="pedestrian tram rail_urban rail rail_electric rail_fast ship" speed="13.89" length="23.21" width="3.50" shape="298.85,68.75,0.00 298.85,45.54,0.00"/>
    </edge>
    <edge id=":1162_2" function="internal">
        <lane id=":1162_2_0" index="0" disallow="pedestrian tram rail_urban rail rail_electric rail_fast ship" speed="8.20" length="14.44" width="3.50" shape="313.91,58.80,0.04 310.39,59.54,0.03 307.87,61.45,0.02 306.36,64.51,0.01 305.85,68.74,0.00"/>
    </edge>
    <edge id=":1162_3" function="internal">
        <lane id=":1162_3_0" index="0" disallow="pedestrian tram rail_urban rail rail_electric rail_fast ship" speed="7.98" length="14.41" width="3.50" shape="305.85,45.54,0.00 306.34,49.93,0.01 307.83,53.02,0.02 310.31,54.81,0.03 313.78,55.31,0.04"/>
    </edge>
    <edge id=":1162_4" function="internal">
        <lane id=":1162_4_0" index="0" disallow="pedestrian tram rail_urban rail rail_electric rail_fast ship" speed="13.89" length="23.21" width="3.50" shape="305.85,45.54,0.00 305.85,68.74,0.00"/>
        <lane id=":1162_4_1" index="1" disallow="pedestrian tram rail_urban rail rail_electric rail_fast ship" speed="13.89" length="23.21" width="3.50" shape="302.35,45.54,0.00 302.35,68.75,0.00"/>
    </edge>
    <edge id=":1175_0" function="internal">
        <lane id=":1175_0_0" index="0" disallow="pedestrian tram rail_urban rail rail_electric rail_fast ship" speed="8.50" length="15.94" width="3.50" shape="161.39,115.87 156.54,116.42 153.07,118.03 150.97,120.72 150.25,124.47"/>
    </edge>
    <edge id=":1175_1" function="internal">
        <lane id=":1175_1_0" index="0" disallow="pedestrian tram rail_urban rail rail_electric rail_fast ship" speed="13.89" length="32.52" width="3.50" shape="161.39,115.87 128.87,115.91"/>
        <lane id=":1175_1_1" index="1" disallow="pedestrian tram rail_urban rail rail_electric rail_fast ship" speed="13.89" length="32.52" width="3.50" shape="161.38,112.37 128.87,112.41"/>
    </edge>
    <edge id=":1175_3" function="internal">
        <lane id=":1175_3_0" index="0" disallow="pedestrian tram rail_urban rail rail_electric rail_fast ship" speed="10.84" length="27.03" width="3.50" shape="161.38,112.37 153.50,111.41 147.90,108.50 144.56,103.65 143.49,96.84"/>
    </edge>
    <edge id=":1175_4" function="internal">
        <lane id=":1175_4_0" index="0" disallow="pedestrian tram rail_urban rail rail_electric rail_fast ship" speed="8.38" length="15.68" width="3.50" shape="150.49,96.91 151.15,100.62 153.18,103.26 156.59,104.85 161.37,105.37"/>
    </edge>
    <edge id=":1175_5" function="internal">
        <lane id=":1175_5_0" index="0" disallow="pedestrian tram rail_urban rail rail_electric rail_fast ship" speed="13.89" length="27.57" width="3.50" shape="150.49,96.91 150.25,124.47"/>
        <lane id=":1175_5_1" index="1" disallow="pedestrian tram rail_urban rail rail_electric rail_fast ship" speed="13.89" length="27.57" width="3.50" shape="146.99,96.88 146.75,124.44"/>
    </edge>
    <edge id=":1175_7" function="internal">
        <lane id=":1175_7_0" index="0" disallow="pedestrian tram rail_urban rail rail_electric rail_fast ship" speed="10.94" length="7.99" width="3.50" shape="146.99,96.88 145.81,103.66 145.18,104.56"/>
    </edge>
    <edge id=":1175_16" function="internal">
        <lane id=":1175_16_0" index="0" disallow="pedestrian tram rail_urban rail rail_electric rail_fast ship" speed="10.94" length="19.13" width="3.50" shape="145.18,104.56 142.39,108.52 136.75,111.43 128.87,112.41"/>
    </edge>
    <edge id=":1175_8" function="internal">
        <lane id=":1175_8_0" index="0" disallow="pedestrian tram rail_urban rail rail_electric rail_fast ship" speed="8.50" length="15.94" width="3.50" shape="128.86,105.41 133.70,104.87 137.17,103.25 139.27,100.57 139.99,96.81"/>
    </edge>
    <edge id=":1175_9" function="internal">
        <lane id=":1175_9_0" index="0" disallow="pedestrian tram rail_urban rail rail_electric rail_fast ship" speed="13.89" length="32.52" width="3.50" shape="128.86,105.41 161.37,105.37"/>
        <lane id=":1175_9_1" index="1" disallow="pedestrian tram rail_urban rail rail_electric rail_fast ship" speed="13.89" length="32.52" width="3.50" shape="128.86,108.91 161.38,108.87"/>
    </edge>
    <edge id=":1175_11" function="internal">
        <lane id=":1175_11_0" index="0" disallow="pedestrian tram rail_urban rail rail_electric rail_fast ship" speed="10.84" length="27.03" width="3.50" shape="128.86,108.91 136.74,109.87 142.35,112.78 145.68,117.64 146.75,124.44"/>
    </edge>
    <edge id=":1175_12" function="internal">
        <lane id=":1175_12_0" index="0" disallow="pedestrian tram rail_urban rail rail_electric rail_fast ship" speed="8.38" length="15.68" width="3.50" shape="139.75,124.38 139.10,120.67 137.07,118.02 133.66,116.44 128.87,115.91"/>
    </edge>
    <edge id=":1175_13" function="internal">
        <lane id=":1175_13_0" index="0" disallow="pedestrian tram rail_urban rail rail_electric rail_fast ship" speed="13.89" length="27.57" width="3.50" shape="139.75,124.38 139.99,96.81"/>
        <lane id=":1175_13_1" index="1" disallow="pedestrian tram rail_urban rail rail_electric rail_fast ship" speed="13.89" length="27.57" width="3.50" shape="143.25,124.41 143.49,96.84"/>
    </edge>
    <edge id=":1175_15" function="internal">
        <lane id=":1175_15_0" index="0" disallow="pedestrian tram rail_urban rail rail_electric rail_fast ship" speed="10.94" length="7.99" width="3.50" shape="143.25,124.41 144.43,117.62 145.07,116.72"/>
    </edge>
    <edge id=":1175_17" function="internal">
        <lane id=":1175_17_0" index="0" disallow="pedestrian tram rail_urban rail rail_electric rail_fast ship" speed="10.94" length="19.13" width="3.50" shape="145.07,116.72 147.85,112.77 153.50,109.85 161.38,108.87"/>
    </edge>
    <edge id=":1260_0" function="internal">
        <lane id=":1260_0_0" index="0" disallow="pedestrian tram rail_urban rail rail_electric rail_fast ship" speed="8.48" length="16.04" width="3.50" shape="295.34,24.04,0.00 294.81,19.05,0.00 293.23,15.49,0.00 290.60,13.36,0.00 286.92,12.67"/>
    </edge>
    <edge id=":1260_1" function="internal">
        <lane id=":1260_1_0" index="0" disallow="pedestrian tram rail_urban rail rail_electric rail_fast ship" speed="11.80" length="31.89" width="3.50" shape="298.84,24.04,0.00 299.66,12.91,0.00 302.16,4.95,0.00 306.32,0.16,0.00 312.14,-1.46"/>
    </edge>
    <edge id=":1260_2" function="internal">
        <lane id=":1260_2_0" index="0" disallow="pedestrian tram rail_urban rail rail_electric rail_fast ship" speed="8.16" length="14.64" width="3.50" shape="312.21,12.54 309.42,13.27,0.00 307.43,15.43,0.00 306.23,19.02,0.00 305.84,24.04,0.00"/>
    </edge>
    <edge id=":1260_3" function="internal">
        <lane id=":1260_3_0" index="0" disallow="pedestrian tram rail_urban rail rail_electric rail_fast ship" speed="13.89" length="25.28" width="3.50" shape="312.21,12.54 286.92,12.67"/>
        <lane id=":1260_3_1" index="1" disallow="pedestrian tram rail_urban rail rail_electric rail_fast ship" speed="13.89" length="25.28" width="3.50" shape="312.19,9.04 286.91,9.17"/>
        <lane id=":1260_3_2" index="2" disallow="pedestrian tram rail_urban rail rail_electric rail_fast ship" speed="13.89" length="25.28" width="3.50" shape="312.17,5.54 286.89,5.67"/>
    </edge>
    <edge id=":1260_6" function="internal">
        <lane id=":1260_6_0" index="0" disallow="pedestrian tram rail_urban rail rail_electric rail_fast ship" speed="13.89" length="25.28" width="3.50" shape="286.82,-8.33 312.10,-8.46"/>
        <lane id=":1260_6_1" index="1" disallow="pedestrian tram rail_urban rail rail_electric rail_fast ship" speed="13.89" length="25.28" width="3.50" shape="286.84,-4.83 312.12,-4.96"/>
        <lane id=":1260_6_2" index="2" disallow="pedestrian tram rail_urban rail rail_electric rail_fast ship" speed="13.89" length="25.28" width="3.50" shape="286.85,-1.33 312.14,-1.46"/>
    </edge>
    <edge id=":1260_9" function="internal">
        <lane id=":1260_9_0" index="0" disallow="pedestrian tram rail_urban rail rail_electric rail_fast ship" speed="12.02" length="12.14" width="3.50" shape="286.85,-1.33 293.62,0.23,0.00 297.33,3.87,0.00"/>
    </edge>
    <edge id=":1260_10" function="internal">
        <lane id=":1260_10_0" index="0" disallow="pedestrian tram rail_urban rail rail_electric rail_fast ship" speed="12.02" length="21.20" width="3.50" shape="297.33,3.87,0.00 298.46,4.97,0.00 301.37,12.91,0.00 302.34,24.04,0.00"/>
    </edge>
    <edge id=":139_0" function="internal">
        <lane id=":139_0_0" index="0" disallow="pedestrian tram rail_urban rail rail_electric rail_fast ship" speed="8.03" length="14.14" width="3.50" shape="216.46,124.16,0.06 215.87,120.51,0.04 214.13,117.90,0.03 211.26,116.34,0.02 207.25,115.82"/>
    </edge>
    <edge id=":139_1" function="internal">
        <lane id=":139_1_0" index="0" disallow="pedestrian tram rail_urban rail rail_electric rail_fast ship" speed="13.89" length="27.27" width="3.50" shape="216.46,124.16,0.06 216.28,96.89,0.06"/>
        <lane id=":139_1_1" index="1" disallow="pedestrian tram rail_urban rail rail_electric rail_fast ship" speed="13.89" length="27.27" width="3.50" shape="219.96,124.13,0.06 219.78,96.86,0.06"/>
    </edge>
    <edge id=":139_3" function="internal">
        <lane id=":139_3_0" index="0" disallow="pedestrian tram rail_urban rail rail_electric rail_fast ship" speed="10.29" length="8.43" width="3.50" shape="219.96,124.13,0.06 220.83,117.43,0.04 221.66,115.98,0.04"/>
    </edge>
    <edge id=":139_16" function="internal">
        <lane id=":139_16_0" index="0" disallow="pedestrian tram rail_urban rail rail_electric rail_fast ship" speed="10.29" length="15.73" width="3.50" shape="221.66,115.98,0.04 223.56,112.63,0.03 228.12,109.76,0.01 234.54,108.79"/>
    </edge>
    <edge id=":139_4" function="internal">
        <lane id=":139_4_0" index="0" disallow="pedestrian tram rail_urban rail rail_electric rail_fast ship" speed="7.65" length="12.83" width="3.50" shape="234.55,115.79 231.21,116.31,0.01 228.83,117.87,0.03 227.42,120.46,0.04 226.96,124.09,0.06"/>
    </edge>
    <edge id=":139_5" function="internal">
        <lane id=":139_5_0" index="0" disallow="pedestrian tram rail_urban rail rail_electric rail_fast ship" speed="13.89" length="27.29" width="3.50" shape="234.55,115.79 207.25,115.82"/>
        <lane id=":139_5_1" index="1" disallow="pedestrian tram rail_urban rail rail_electric rail_fast ship" speed="13.89" length="27.29" width="3.50" shape="234.54,112.29 207.25,112.32"/>
    </edge>
    <edge id=":139_7" function="internal">
        <lane id=":139_7_0" index="0" disallow="pedestrian tram rail_urban rail rail_electric rail_fast ship" speed="10.36" length="24.31" width="3.50" shape="234.54,112.29 228.12,111.33,0.01 223.52,108.44,0.03 220.74,103.62,0.04 219.78,96.86,0.06"/>
    </edge>
    <edge id=":139_8" function="internal">
        <lane id=":139_8_0" index="0" disallow="pedestrian tram rail_urban rail rail_electric rail_fast ship" speed="7.74" length="13.07" width="3.50" shape="226.78,96.82,0.06 227.29,100.53,0.04 228.75,103.18,0.03 231.16,104.76,0.01 234.53,105.29"/>
    </edge>
    <edge id=":139_9" function="internal">
        <lane id=":139_9_0" index="0" disallow="pedestrian tram rail_urban rail rail_electric rail_fast ship" speed="13.89" length="27.27" width="3.50" shape="226.78,96.82,0.06 226.96,124.09,0.06"/>
        <lane id=":139_9_1" index="1" disallow="pedestrian tram rail_urban rail rail_electric rail_fast ship" speed="13.89" length="27.27" width="3.50" shape="223.28,96.84,0.06 223.46,124.11,0.06"/>
    </edge>
    <edge id=":139_11" function="internal">
        <lane id=":139_11_0" index="0" disallow="pedestrian tram rail_urban rail rail_electric rail_fast ship" speed="10.55" length="8.23" width="3.50" shape="223.28,96.84,0.06 222.32,103.61,0.04 221.58,104.79,0.04"/>
    </edge>
    <edge id=":139_17" function="internal">
        <lane id=":139_17_0" index="0" disallow="pedestrian tram rail_urban rail rail_electric rail_fast ship" speed="10.55" length="17.22" width="3.50" shape="221.58,104.79,0.04 219.32,108.44,0.03 214.30,111.35,0.02 207.25,112.32"/>
    </edge>
    <edge id=":139_12" function="internal">
        <lane id=":139_12_0" index="0" disallow="pedestrian tram rail_urban rail rail_electric rail_fast ship" speed="7.99" length="14.11" width="3.50" shape="207.24,105.32 211.22,104.79,0.02 214.05,103.21,0.03 215.74,100.57,0.04 216.28,96.89,0.06"/>
    </edge>
    <edge id=":139_13" function="internal">
        <lane id=":139_13_0" index="0" disallow="pedestrian tram rail_urban rail rail_electric rail_fast ship" speed="13.89" length="27.29" width="3.50" shape="207.24,105.32 234.53,105.29"/>
        <lane id=":139_13_1" index="1" disallow="pedestrian tram rail_urban rail rail_electric rail_fast ship" speed="13.89" length="27.29" width="3.50" shape="207.24,108.82 234.54,108.79"/>
    </edge>
    <edge id=":139_15" function="internal">
        <lane id=":139_15_0" index="0" disallow="pedestrian tram rail_urban rail rail_electric rail_fast ship" speed="10.58" length="25.38" width="3.50" shape="207.24,108.82 214.30,109.77,0.02 219.36,112.63,0.03 222.41,117.42,0.04 223.46,124.11,0.06"/>
    </edge>
    <edge id=":224_0" function="internal">
        <lane id=":224_0_0" index="0" disallow="pedestrian tram rail_urban rail rail_electric rail_fast ship" speed="8.47" length="15.99" width="3.50" shape="422.30,212.17,0.04 421.69,207.83,0.03 419.83,204.74,0.03 416.73,202.89,0.02 412.38,202.29,0.02"/>
    </edge>
    <edge id=":224_1" function="internal">
        <lane id=":224_1_0" index="0" disallow="pedestrian tram rail_urban rail rail_electric rail_fast ship" speed="13.89" length="23.27" width="3.50" shape="422.30,212.17,0.04 422.33,188.90,0.04"/>
    </edge>
    <edge id=":224_2" function="internal">
        <lane id=":224_2_0" index="0" disallow="pedestrian tram rail_urban rail rail_electric rail_fast ship" speed="13.89" length="23.27" width="3.50" shape="425.83,188.91,0.04 425.80,212.18,0.04"/>
    </edge>
    <edge id=":224_3" function="internal">
        <lane id=":224_3_0" index="0" disallow="pedestrian tram rail_urban rail rail_electric rail_fast ship" speed="9.80" length="7.66" width="3.50" shape="425.83,188.91,0.04 424.98,194.74,0.03 424.07,196.25,0.03"/>
    </edge>
    <edge id=":224_6" function="internal">
        <lane id=":224_6_0" index="0" disallow="pedestrian tram rail_urban rail rail_electric rail_fast ship" speed="9.80" length="13.95" width="3.50" shape="424.07,196.25,0.03 422.46,198.91,0.03 418.26,201.43,0.02 412.38,202.29,0.02"/>
    </edge>
    <edge id=":224_4" function="internal">
        <lane id=":224_4_0" index="0" disallow="pedestrian tram rail_urban rail rail_electric rail_fast ship" speed="8.50" length="15.98" width="3.50" shape="412.37,198.79,0.02 416.72,198.15,0.02 419.83,196.29,0.03 421.70,193.21,0.03 422.33,188.90,0.04"/>
    </edge>
    <edge id=":224_5" function="internal">
        <lane id=":224_5_0" index="0" disallow="pedestrian tram rail_urban rail rail_electric rail_fast ship" speed="9.77" length="21.66" width="3.50" shape="412.37,198.79,0.02 418.25,199.60,0.02 422.45,202.11,0.03 424.97,206.30,0.03 425.80,212.18,0.04"/>
    </edge>
    <edge id=":24.11_0" function="internal">
        <lane id=":24.11_0_0" index="0" allow="pedestrian" speed="2.78" length="3.00" width="2.00" shape="9.21,179.26 9.17,182.26"/>
        <lane id=":24.11_0_1" index="1" disallow="all" speed="1.39" length="3.00" width="0.63" shape="7.89,179.24 7.86,182.24"/>
        <lane id=":24.11_0_2" index="2" disallow="all" speed="1.39" length="3.00" width="0.50" shape="7.32,179.24 7.29,182.24"/>
        <lane id=":24.11_0_3" index="3" disallow="pedestrian tram rail_urban rail rail_electric rail_fast ship" speed="13.89" length="3.00" width="3.50" shape="5.32,179.22 5.29,182.22"/>
        <lane id=":24.11_0_4" index="4" disallow="pedestrian tram rail_urban rail rail_electric rail_fast ship" speed="13.89" length="3.00" width="3.50" shape="1.82,179.18 1.79,182.18"/>
    </edge>
    <edge id=":24.11_5" function="internal">
        <lane id=":24.11_5_0" index="0" allow="pedestrian" speed="2.78" length="4.30" width="2.00" shape="-18.09,181.98 -9.06,179.07"/>
        <lane id=":24.11_5_1" index="1" disallow="all" speed="1.39" length="4.30" width="0.63" shape="-7.78,182.09 -7.75,179.09"/>
        <lane id=":24.11_5_2" index="2" disallow="all" speed="1.39" length="4.30" width="0.50" shape="-7.21,182.09 -7.18,179.09"/>
        <lane id=":24.11_5_3" index="3" disallow="pedestrian tram rail_urban rail rail_electric rail_fast ship" speed="13.89" length="4.30" width="3.50" shape="-5.21,182.11 -5.18,179.11"/>
        <lane id=":24.11_5_4" index="4" disallow="pedestrian tram rail_urban rail rail_electric rail_fast ship" speed="13.89" length="4.30" width="3.50" shape="-1.71,182.15 -1.68,179.15"/>
    </edge>
    <edge id=":245_0" function="internal">
        <lane id=":245_0_0" index="0" disallow="pedestrian tram rail_urban rail rail_electric rail_fast ship" speed="7.41" length="11.93" width="3.50" shape="75.70,303.86,0.06 75.30,300.20,0.04 74.10,297.59,0.03 72.10,296.03,0.01 69.30,295.51"/>
    </edge>
    <edge id=":245_1" function="internal">
        <lane id=":245_1_0" index="0" disallow="pedestrian tram rail_urban rail rail_electric rail_fast ship" speed="13.89" length="27.27" width="3.50" shape="75.70,303.86,0.06 75.70,276.59,0.06"/>
        <lane id=":245_1_1" index="1" disallow="pedestrian tram rail_urban rail rail_electric rail_fast ship" speed="13.89" length="27.27" width="3.50" shape="79.20,303.86,0.06 79.20,276.59,0.06"/>
    </edge>
    <edge id=":245_3" function="internal">