<?xml version="1.0" encoding="UTF-8"?>
<net version="1.6" junctionCornerDetail="5" rectangularLaneCut="true" limitTurnSpeed="5.50" xmlns:xsi="http://www.w3.org/2001/XMLSchema-instance" xsi:noNamespaceSchemaLocation="http://sumo.dlr.de/xsd/net_file.xsd">

    <location netOffset="503.02,423.76" convBoundary="0.00,0.00,899.28,800.65" origBoundary="-499.52,-420.26,409.23,380.40" projParameter="!"/>

    <type id="bidirectional" priority="1" speed="1.39" disallow="pedestrian tram rail_urban rail rail_electric rail_fast ship" width="3.65"/>
    <type id="biking" priority="-1" speed="5.56" allow="bicycle" width="1.50"/>
    <type id="border" priority="0" speed="1.39" disallow="all" discard="1" width="0.10"/>
    <type id="driving" priority="1" speed="13.89" disallow="pedestrian tram rail_urban rail rail_electric rail_fast ship" width="3.65"/>
    <type id="entry" priority="1" speed="22.22" disallow="pedestrian tram rail_urban rail rail_electric rail_fast ship" width="3.65"/>
    <type id="exit" priority="1" speed="22.22" disallow="pedestrian tram rail_urban rail rail_electric rail_fast ship" width="3.65"/>
    <type id="median" priority="0" speed="1.39" disallow="all" discard="1" width="0.10"/>
    <type id="mwyEntry" priority="1" speed="22.22" allow="private emergency authority army vip passenger hov taxi bus coach delivery truck trailer motorcycle evehicle custom1 custom2" width="3.65"/>
    <type id="mwyExit" priority="1" speed="22.22" allow="private emergency authority army vip passenger hov taxi bus coach delivery truck trailer motorcycle evehicle custom1 custom2" width="3.65"/>
    <type id="none" priority="0" speed="1.39" disallow="all" discard="1" width="1.00"/>
    <type id="offRamp" priority="1" speed="22.22" allow="private emergency authority army vip passenger hov taxi bus coach delivery truck trailer motorcycle evehicle custom1 custom2" width="3.65"/>
    <type id="onRamp" priority="1" speed="22.22" allow="private emergency authority army vip passenger hov taxi bus coach delivery truck trailer motorcycle evehicle custom1 custom2" width="3.65"/>
    <type id="parking" priority="1" speed="1.39" disallow="pedestrian tram rail_urban rail rail_electric rail_fast ship" width="2.50"/>
    <type id="rail" priority="3" speed="33.33" allow="rail_urban rail rail_electric rail_fast" width="3.65"/>
    <type id="restricted" priority="0" speed="13.89" disallow="all" width="3.65"/>
    <type id="roadWorks" priority="0" speed="1.39" allow="authority" width="3.65"/>
    <type id="shoulder" priority="0" speed="1.39" disallow="all" discard="1" width="1.00"/>
    <type id="sidewalk" priority="-2" speed="2.78" allow="pedestrian" width="2.50"/>
    <type id="special1" priority="1" speed="22.22" allow="custom1" discard="1" width="3.65"/>
    <type id="special2" priority="1" speed="22.22" allow="custom2" discard="1" width="3.65"/>
    <type id="special3" priority="1" speed="22.22" allow="custom1 custom2" discard="1" width="3.65"/>
    <type id="stop" priority="1" speed="13.89" disallow="pedestrian tram rail_urban rail rail_electric rail_fast ship" width="3.65"/>
    <type id="tram" priority="2" speed="13.89" allow="tram" width="3.65"/>

    <edge id=":1012_0" function="internal">
        <lane id=":1012_0_0" index="0" disallow="pedestrian tram rail_urban rail rail_electric rail_fast ship" speed="13.89" length="26.01" width="3.50" shape="883.07,444.57 881.82,438.00 880.27,433.58 877.60,429.74 873.01,424.87"/>
        <lane id=":1012_0_1" index="1" disallow="pedestrian tram rail_urban rail rail_electric rail_fast ship" speed="13.89" length="26.01" width="3.50" shape="886.52,444.00 885.15,436.79 883.45,431.96 880.53,427.74 875.50,422.41"/>
        <lane id=":1012_0_2" index="2" disallow="pedestrian tram rail_urban rail rail_electric rail_fast ship" speed="13.89" length="26.01" width="3.50" shape="889.98,443.42 888.49,435.59 886.64,430.33 883.46,425.75 877.99,419.95"/>
        <lane id=":1012_0_3" index="3" disallow="pedestrian tram rail_urban rail rail_electric rail_fast ship" speed="13.89" length="26.01" width="3.50" shape="893.43,442.85 891.82,434.39 889.83,428.70 886.39,423.75 880.48,417.49"/>
    </edge>
    <edge id=":1012_4" function="internal">
        <lane id=":1012_4_0" index="0" disallow="pedestrian tram rail_urban rail rail_electric rail_fast ship" speed="13.89" length="42.13" width="3.50" shape="907.10,397.85 914.14,439.39"/>
        <lane id=":1012_4_1" index="1" disallow="pedestrian tram rail_urban rail rail_electric rail_fast ship" speed="13.89" length="42.13" width="3.50" shape="903.65,398.43 910.69,439.97"/>
    </edge>
    <edge id=":1012_6" function="internal">
        <lane id=":1012_6_0" index="0" disallow="pedestrian tram rail_urban rail rail_electric rail_fast ship" speed="13.89" length="39.05" width="3.50" shape="895.43,402.74 903.98,411.79 908.95,418.94 911.83,427.16 914.14,439.39"/>
        <lane id=":1012_6_1" index="1" disallow="pedestrian tram rail_urban rail rail_electric rail_fast ship" speed="13.89" length="39.05" width="3.50" shape="892.94,405.20 901.05,413.78 905.76,420.57 908.50,428.37 910.69,439.97"/>
        <lane id=":1012_6_2" index="2" disallow="pedestrian tram rail_urban rail rail_electric rail_fast ship" speed="13.89" length="39.05" width="3.50" shape="890.45,407.66 898.12,415.78 902.57,422.20 905.16,429.57 907.24,440.54"/>
        <lane id=":1012_6_3" index="3" disallow="pedestrian tram rail_urban rail rail_electric rail_fast ship" speed="13.89" length="39.05" width="3.50" shape="887.96,410.12 895.19,417.77 899.39,423.82 901.83,430.77 903.78,441.12"/>
    </edge>
    <edge id=":106_0" function="internal">
        <lane id=":106_0_0" index="0" disallow="pedestrian tram rail_urban rail rail_electric rail_fast ship" speed="7.97" length="13.75" width="3.50" shape="705.05,743.26,0.02 704.43,739.61,0.02 702.75,737.00,0.03 700.03,735.44,0.03 696.26,734.93,0.03"/>
    </edge>
    <edge id=":106_1" function="internal">
        <lane id=":106_1_0" index="0" disallow="pedestrian tram rail_urban rail rail_electric rail_fast ship" speed="13.89" length="20.64" width="3.50" shape="705.05,743.26,0.02 704.57,722.62,0.02"/>
    </edge>
    <edge id=":106_2" function="internal">
        <lane id=":106_2_0" index="0" disallow="pedestrian tram rail_urban rail rail_electric rail_fast ship" speed="8.73" length="17.18" width="3.50" shape="705.05,743.26,0.02 705.55,738.21,0.02 707.30,734.59,0.01 710.33,732.40,0.01 714.61,731.63,0.00"/>
    </edge>
    <edge id=":106_3" function="internal">
        <lane id=":106_3_0" index="0" disallow="pedestrian tram rail_urban rail rail_electric rail_fast ship" speed="7.26" length="11.49" width="3.50" shape="714.64,735.13,0.00 711.91,735.66,0.01 709.98,737.18,0.01 708.86,739.68,0.01 708.55,743.18,0.02"/>
    </edge>
    <edge id=":106_4" function="internal">
        <lane id=":106_4_0" index="0" disallow="pedestrian tram rail_urban rail rail_electric rail_fast ship" speed="13.89" length="18.39" width="3.50" shape="714.64,735.13,0.00 696.26,734.93,0.03"/>
    </edge>
    <edge id=":106_5" function="internal">
        <lane id=":106_5_0" index="0" disallow="pedestrian tram rail_urban rail rail_electric rail_fast ship" speed="9.05" length="6.14" width="3.50" shape="714.64,735.13,0.00 710.35,734.39,0.01 708.92,733.32,0.01"/>
    </edge>
    <edge id=":106_12" function="internal">
        <lane id=":106_12_0" index="0" disallow="pedestrian tram rail_urban rail rail_electric rail_fast ship" speed="9.05" length="12.04" width="3.50" shape="708.92,733.32,0.01 707.24,732.06,0.01 705.31,728.13,0.01 704.57,722.62,0.02"/>
    </edge>
    <edge id=":106_6" function="internal">
        <lane id=":106_6_0" index="0" disallow="pedestrian tram rail_urban rail rail_electric rail_fast ship" speed="7.64" length="12.61" width="3.50" shape="708.07,722.54,0.02 708.56,726.54,0.01 709.81,729.39,0.01 711.83,731.09,0.01 714.61,731.63,0.00"/>
    </edge>
    <edge id=":106_7" function="internal">
        <lane id=":106_7_0" index="0" disallow="pedestrian tram rail_urban rail rail_electric rail_fast ship" speed="13.89" length="20.64" width="3.50" shape="708.07,722.54,0.02 708.55,743.18,0.02"/>
    </edge>
    <edge id=":106_8" function="internal">
        <lane id=":106_8_0" index="0" disallow="pedestrian tram rail_urban rail rail_electric rail_fast ship" speed="9.27" length="19.62" width="3.50" shape="708.07,722.54,0.02 707.44,727.95,0.02 705.26,731.82,0.03 701.53,734.15,0.03 696.26,734.93,0.03"/>
    </edge>
    <edge id=":106_9" function="internal">
        <lane id=":106_9_0" index="0" disallow="pedestrian tram rail_urban rail rail_electric rail_fast ship" speed="7.89" length="13.89" width="3.50" shape="696.25,731.43,0.03 699.97,730.87,0.03 702.59,729.22,0.03 704.13,726.47,0.02 704.57,722.62,0.02"/>
    </edge>
    <edge id=":106_10" function="internal">
        <lane id=":106_10_0" index="0" disallow="pedestrian tram rail_urban rail rail_electric rail_fast ship" speed="13.89" length="18.36" width="3.50" shape="696.25,731.43,0.03 714.61,731.63,0.00"/>
    </edge>
    <edge id=":106_11" function="internal">
        <lane id=":106_11_0" index="0" disallow="pedestrian tram rail_urban rail rail_electric rail_fast ship" speed="9.34" length="7.54" width="3.50" shape="696.25,731.43,0.03 701.53,732.15,0.03 703.44,733.26,0.03"/>
    </edge>
    <edge id=":106_13" function="internal">
        <lane id=":106_13_0" index="0" disallow="pedestrian tram rail_urban rail rail_electric rail_fast ship" speed="9.34" length="11.77" width="3.50" shape="703.44,733.26,0.03 705.34,734.35,0.03 707.68,738.03,0.02 708.55,743.18,0.02"/>
    </edge>
    <edge id=":167_0" function="internal">
        <lane id=":167_0_0" index="0" disallow="pedestrian tram rail_urban rail rail_electric rail_fast ship" speed="7.46" length="12.02" width="3.50" shape="851.49,601.72,0.00 850.90,599.19,0.05 849.20,597.39,0.09 846.38,596.32,0.13 842.46,595.98,0.20"/>
    </edge>
    <edge id=":167_1" function="internal">
        <lane id=":167_1_0" index="0" disallow="pedestrian tram rail_urban rail rail_electric rail_fast ship" speed="13.89" length="18.21" width="3.50" shape="851.49,601.72,0.00 851.25,583.51,0.00"/>
    </edge>
    <edge id=":167_2" function="internal">
        <lane id=":167_2_0" index="0" disallow="pedestrian tram rail_urban rail rail_electric rail_fast ship" speed="8.20" length="14.95" width="3.50" shape="851.49,601.72,0.00 852.02,597.65,0.06 853.72,594.74,0.10 856.60,592.98,0.14 860.66,592.38,0.20"/>
    </edge>
    <edge id=":167_3" function="internal">
        <lane id=":167_3_0" index="0" disallow="pedestrian tram rail_urban rail rail_electric rail_fast ship" speed="6.60" length="9.28" width="3.50" shape="860.68,595.88,0.20 858.16,596.25,0.14 856.37,597.34,0.10 855.32,599.15,0.06 854.99,601.67,0.00"/>
    </edge>
    <edge id=":167_4" function="internal">
        <lane id=":167_4_0" index="0" disallow="pedestrian tram rail_urban rail rail_electric rail_fast ship" speed="13.89" length="18.21" width="3.50" shape="860.68,595.88,0.20 842.46,595.98,0.20"/>
    </edge>
    <edge id=":167_5" function="internal">
        <lane id=":167_5_0" index="0" disallow="pedestrian tram rail_urban rail rail_electric rail_fast ship" speed="8.90" length="5.69" width="3.50" shape="860.68,595.88,0.20 856.61,595.12,0.15 855.39,594.16,0.13"/>
    </edge>
    <edge id=":167_12" function="internal">
        <lane id=":167_12_0" index="0" disallow="pedestrian tram rail_urban rail rail_electric rail_fast ship" speed="8.90" length="11.91" width="3.50" shape="855.39,594.16,0.13 853.69,592.81,0.11 851.90,588.94,0.06 851.25,583.51,0.00"/>
    </edge>
    <edge id=":167_6" function="internal">
        <lane id=":167_6_0" index="0" disallow="pedestrian tram rail_urban rail rail_electric rail_fast ship" speed="7.46" length="12.02" width="3.50" shape="854.75,583.46,0.00 855.16,587.37,0.07 856.28,590.17,0.11 858.12,591.83,0.15 860.66,592.38,0.20"/>
    </edge>
    <edge id=":167_7" function="internal">
        <lane id=":167_7_0" index="0" disallow="pedestrian tram rail_urban rail rail_electric rail_fast ship" speed="13.89" length="18.21" width="3.50" shape="854.75,583.46,0.00 854.99,601.67,0.00"/>
    </edge>
    <edge id=":167_8" function="internal">
        <lane id=":167_8_0" index="0" disallow="pedestrian tram rail_urban rail rail_electric rail_fast ship" speed="9.41" length="20.04" width="3.50" shape="854.75,583.46,0.00 854.04,588.91,0.06 851.76,592.82,0.10 847.90,595.17,0.14 842.46,595.98,0.20"/>
    </edge>
    <edge id=":167_9" function="internal">
        <lane id=":167_9_0" index="0" disallow="pedestrian tram rail_urban rail rail_electric rail_fast ship" speed="8.05" length="14.36" width="3.50" shape="842.44,592.48,0.20 846.34,591.90,0.14 849.11,590.21,0.10 850.74,587.42,0.06 851.25,583.51,0.00"/>
    </edge>
    <edge id=":167_10" function="internal">
        <lane id=":167_10_0" index="0" disallow="pedestrian tram rail_urban rail rail_electric rail_fast ship" speed="13.89" length="18.21" width="3.50" shape="842.44,592.48,0.20 860.66,592.38,0.20"/>
    </edge>
    <edge id=":167_11" function="internal">
        <lane id=":167_11_0" index="0" disallow="pedestrian tram rail_urban rail rail_electric rail_fast ship" speed="8.90" length="8.35" width="3.50" shape="842.44,592.48,0.20 847.89,593.03,0.14 850.52,594.19,0.11"/>
    </edge>
    <edge id=":167_13" function="internal">
        <lane id=":167_13_0" index="0" disallow="pedestrian tram rail_urban rail rail_electric rail_fast ship" speed="8.90" length="9.25" width="3.50" shape="850.52,594.19,0.11 851.79,594.74,0.09 854.16,597.63,0.05 854.99,601.67,0.00"/>
    </edge>
    <edge id=":252_0" function="internal">
        <lane id=":252_0_0" index="0" disallow="pedestrian tram rail_urban rail rail_electric rail_fast ship" speed="13.89" length="15.27" width="3.50" shape="715.80,819.48 700.53,819.59"/>
        <lane id=":252_0_1" index="1" disallow="pedestrian tram rail_urban rail rail_electric rail_fast ship" speed="13.89" length="15.27" width="3.50" shape="715.78,815.98 700.51,816.09"/>
        <lane id=":252_0_2" index="2" disallow="pedestrian tram rail_urban rail rail_electric rail_fast ship" speed="13.89" length="15.27" width="3.50" shape="715.75,812.48 700.48,812.59"/>
        <lane id=":252_0_3" index="3" disallow="pedestrian tram rail_urban rail rail_electric rail_fast ship" speed="13.89" length="15.27" width="3.50" shape="715.73,808.98 700.46,809.09"/>
    </edge>
    <edge id=":252_4" function="internal">
        <lane id=":252_4_0" index="0" disallow="pedestrian tram rail_urban rail rail_electric rail_fast ship" speed="6.75" length="9.58" width="3.50" shape="709.44,782.19,0.02 709.87,784.74,0.01 711.04,786.55,0.01 712.94,787.63,0.01 715.57,787.98"/>
    </edge>
    <edge id=":252_5" function="internal">
        <lane id=":252_5_0" index="0" disallow="pedestrian tram rail_urban rail rail_electric rail_fast ship" speed="6.58" length="9.28" width="3.50" shape="700.30,788.09 702.82,787.71,0.01 704.60,786.62,0.01 705.64,784.80,0.01 705.94,782.27,0.02"/>
    </edge>
    <edge id=":252_6" function="internal">
        <lane id=":252_6_0" index="0" disallow="pedestrian tram rail_urban rail rail_electric rail_fast ship" speed="13.89" length="15.27" width="3.50" shape="700.32,791.59 715.59,791.48"/>
        <lane id=":252_6_1" index="1" disallow="pedestrian tram rail_urban rail rail_electric rail_fast ship" speed="13.89" length="15.27" width="3.50" shape="700.35,795.09 715.62,794.98"/>
        <lane id=":252_6_2" index="2" disallow="pedestrian tram rail_urban rail rail_electric rail_fast ship" speed="13.89" length="15.27" width="3.50" shape="700.38,798.59 715.65,798.48"/>
    </edge>
    <edge id=":281_0" function="internal">
        <lane id=":281_0_0" index="0" disallow="pedestrian tram rail_urban rail rail_electric rail_fast ship" speed="13.89" length="16.27" width="3.50" shape="768.33,734.58,0.00 752.06,734.75,0.00"/>
    </edge>
    <edge id=":281_1" function="internal">
        <lane id=":281_1_0" index="0" disallow="pedestrian tram rail_urban rail rail_electric rail_fast ship" speed="8.47" length="16.01" width="3.50" shape="768.33,734.58,0.00 763.97,734.00,0.01 760.86,732.17,0.01 758.99,729.08,0.02 758.35,724.74,0.02"/>
    </edge>
    <edge id=":281_2" function="internal">
        <lane id=":281_2_0" index="0" disallow="pedestrian tram rail_urban rail rail_electric rail_fast ship" speed="6.93" length="10.33" width="3.50" shape="761.85,724.73,0.02 762.26,727.53,0.02 763.47,729.53,0.01 765.48,730.71,0.01 768.29,731.08,0.00"/>
    </edge>
    <edge id=":281_3" function="internal">
        <lane id=":281_3_0" index="0" disallow="pedestrian tram rail_urban rail rail_electric rail_fast ship" speed="8.50" length="15.95" width="3.50" shape="761.85,724.73,0.02 761.25,729.07,0.02 759.42,732.19,0.01 756.35,734.08,0.01 752.06,734.75,0.00"/>
    </edge>
    <edge id=":281_4" function="internal">
        <lane id=":281_4_0" index="0" disallow="pedestrian tram rail_urban rail rail_electric rail_fast ship" speed="6.96" length="10.34" width="3.50" shape="752.02,731.25,0.00 754.80,730.82,0.01 756.78,729.59,0.01 757.96,727.56,0.02 758.35,724.74,0.02"/>
    </edge>
    <edge id=":281_5" function="internal">
        <lane id=":281_5_0" index="0" disallow="pedestrian tram rail_urban rail rail_electric rail_fast ship" speed="13.89" length="16.27" width="3.50" shape="752.02,731.25,0.00 768.29,731.08,0.00"/>
    </edge>
    <edge id=":317_0" function="internal">
        <lane id=":317_0_0" index="0" disallow="pedestrian tram rail_urban rail rail_electric rail_fast ship" speed="7.20" length="11.05" width="3.50" shape="814.79,680.16,0.00 814.30,677.40,0.00 812.91,675.42,0.00 810.61,674.22,0.00 807.41,673.80,0.00"/>
    </edge>
    <edge id=":317_1" function="internal">
        <lane id=":317_1_0" index="0" disallow="pedestrian tram rail_urban rail rail_electric rail_fast ship" speed="13.89" length="17.70" width="3.50" shape="814.79,680.16,0.00 814.63,662.47,0.00"/>
    </edge>
    <edge id=":317_2" function="internal">
        <lane id=":317_2_0" index="0" disallow="pedestrian tram rail_urban rail rail_electric rail_fast ship" speed="8.60" length="4.33" width="3.50" shape="814.79,680.16,0.00 815.43,675.88,0.00"/>
    </edge>
    <edge id=":317_12" function="internal">
        <lane id=":317_12_0" index="0" disallow="pedestrian tram rail_urban rail rail_electric rail_fast ship" speed="8.60" length="12.33" width="3.50" shape="815.43,675.88,0.00 817.45,672.83,0.00 820.85,671.01,0.00 825.63,670.43,0.00"/>
    </edge>
    <edge id=":317_3" function="internal">
        <lane id=":317_3_0" index="0" disallow="pedestrian tram rail_urban rail rail_electric rail_fast ship" speed="7.09" length="10.96" width="3.50" shape="825.60,673.93,0.00 822.38,674.30,0.00 820.09,675.46,0.00 818.72,677.40,0.00 818.29,680.13,0.00"/>
    </edge>
    <edge id=":317_4" function="internal">
        <lane id=":317_4_0" index="0" disallow="pedestrian tram rail_urban rail rail_electric rail_fast ship" speed="13.89" length="18.20" width="3.50" shape="825.60,673.93,0.00 807.41,673.80,0.00"/>
    </edge>
    <edge id=":317_5" function="internal">
        <lane id=":317_5_0" index="0" disallow="pedestrian tram rail_urban rail rail_electric rail_fast ship" speed="9.03" length="18.03" width="3.50" shape="825.60,673.93,0.00 820.84,673.19,0.00 817.42,671.03,0.00 815.35,667.46,0.00 814.63,662.47,0.00"/>
    </edge>
    <edge id=":317_6" function="internal">
        <lane id=":317_6_0" index="0" disallow="pedestrian tram rail_urban rail rail_electric rail_fast ship" speed="7.60" length="12.45" width="3.50" shape="818.13,662.44,0.00 818.62,665.92,0.00 820.04,668.41,0.00 822.37,669.91,0.00 825.63,670.43,0.00"/>
    </edge>
    <edge id=":317_7" function="internal">
        <lane id=":317_7_0" index="0" disallow="pedestrian tram rail_urban rail rail_electric rail_fast ship" speed="13.89" length="17.70" width="3.50" shape="818.13,662.44,0.00 818.29,680.13,0.00"/>
    </edge>
    <edge id=":317_8" function="internal">
        <lane id=":317_8_0" index="0" disallow="pedestrian tram rail_urban rail rail_electric rail_fast ship" speed="8.89" length="17.88" width="3.50" shape="818.13,662.44,0.00 817.50,667.44,0.00 815.50,671.00,0.00 812.13,673.12,0.00 807.41,673.80,0.00"/>
    </edge>
    <edge id=":317_9" function="internal">
        <lane id=":317_9_0" index="0" disallow="pedestrian tram rail_urban rail rail_electric rail_fast ship" speed="7.44" length="12.17" width="3.50" shape="807.43,670.30,0.00 810.61,669.83,0.00 812.86,668.37,0.00 814.20,665.92,0.00 814.63,662.47,0.00"/>
    </edge>
    <edge id=":317_10" function="internal">
        <lane id=":317_10_0" index="0" disallow="pedestrian tram rail_urban rail rail_electric rail_fast ship" speed="13.89" length="18.20" width="3.50" shape="807.43,670.30,0.00 825.63,670.43,0.00"/>
    </edge>
    <edge id=":317_11" function="internal">
        <lane id=":317_11_0" index="0" disallow="pedestrian tram rail_urban rail rail_electric rail_fast ship" speed="8.69" length="16.63" width="3.50" shape="807.43,670.30,0.00 812.15,670.95,0.00 815.53,672.80,0.00 817.57,675.86,0.00 818.29,680.13,0.00"/>
    </edge>
    <edge id=":386_0" function="internal">
        <lane id=":386_0_0" index="0" disallow="pedestrian tram rail_urban rail rail_electric rail_fast ship" speed="13.89" length="21.05" width="3.50" shape="814.58,657.58,0.00 814.40,636.53,0.00"/>
    </edge>
    <edge id=":386_1" function="internal">
        <lane id=":386_1_0" index="0" disallow="pedestrian tram rail_urban rail rail_electric rail_fast ship" speed="13.89" length="20.94" width="3.50" shape="825.74,638.39,0.00 823.19,644.11,0.00 820.69,647.90,0.00 818.80,651.71,0.00 818.08,657.55,0.00"/>
    </edge>
    <edge id=":386_2" function="internal">
        <lane id=":386_2_0" index="0" disallow="pedestrian tram rail_urban rail rail_electric rail_fast ship" speed="13.89" length="21.05" width="3.50" shape="817.90,636.50,0.00 818.08,657.55,0.00"/>
    </edge>
    <edge id=":394_0" function="internal">
        <lane id=":394_0_0" index="0" disallow="pedestrian tram rail_urban rail rail_electric rail_fast ship" speed="7.63" length="12.68" width="3.50" shape="814.11,604.09,0.00 813.59,600.61,0.06 812.11,598.14,0.10 809.67,596.66,0.14 806.27,596.19,0.20"/>
    </edge>
    <edge id=":394_1" function="internal">
        <lane id=":394_1_0" index="0" disallow="pedestrian tram rail_urban rail rail_electric rail_fast ship" speed="13.89" length="19.10" width="3.50" shape="814.11,604.09,0.00 813.94,584.98,0.00"/>
    </edge>
    <edge id=":394_2" function="internal">
        <lane id=":394_2_0" index="0" disallow="pedestrian tram rail_urban rail rail_electric rail_fast ship" speed="8.93" length="7.25" width="3.50" shape="814.11,604.09,0.00 814.73,599.08,0.06 815.80,597.15,0.08"/>
    </edge>
    <edge id=":394_12" function="internal">
        <lane id=":394_12_0" index="0" disallow="pedestrian tram rail_urban rail rail_electric rail_fast ship" speed="8.93" length="10.61" width="3.50" shape="815.80,597.15,0.08 816.71,595.49,0.10 820.04,593.32,0.15 824.72,592.58,0.20"/>
    </edge>
    <edge id=":394_3" function="internal">
        <lane id=":394_3_0" index="0" disallow="pedestrian tram rail_urban rail rail_electric rail_fast ship" speed="7.48" length="12.20" width="3.50" shape="824.74,596.08,0.20 821.60,596.60,0.15 819.36,598.10,0.10 818.03,600.58,0.06 817.61,604.05,0.00"/>
    </edge>
    <edge id=":394_4" function="internal">
        <lane id=":394_4_0" index="0" disallow="pedestrian tram rail_urban rail rail_electric rail_fast ship" speed="13.89" length="18.48" width="3.50" shape="824.74,596.08,0.20 806.27,596.19,0.20"/>
    </edge>
    <edge id=":394_5" function="internal">
        <lane id=":394_5_0" index="0" disallow="pedestrian tram rail_urban rail rail_electric rail_fast ship" speed="8.90" length="17.65" width="3.50" shape="824.74,596.08,0.20 820.05,595.41,0.14 816.69,593.34,0.10 814.65,589.86,0.06 813.94,584.98,0.00"/>
    </edge>
    <edge id=":394_6" function="internal">
        <lane id=":394_6_0" index="0" disallow="pedestrian tram rail_urban rail rail_electric rail_fast ship" speed="7.45" length="12.02" width="3.50" shape="817.44,584.95,0.00 817.92,588.31,0.06 819.29,590.70,0.10 821.56,592.12,0.14 824.72,592.58,0.20"/>
    </edge>
    <edge id=":394_7" function="internal">
        <lane id=":394_7_0" index="0" disallow="pedestrian tram rail_urban rail rail_electric rail_fast ship" speed="13.89" length="19.10" width="3.50" shape="817.44,584.95,0.00 817.61,604.05,0.00"/>
    </edge>
    <edge id=":394_8" function="internal">
        <lane id=":394_8_0" index="0" disallow="pedestrian tram rail_urban rail rail_electric rail_fast ship" speed="8.98" length="6.95" width="3.50" shape="817.44,584.95,0.00 816.78,589.84,0.06 815.75,591.58,0.08"/>
    </edge>
    <edge id=":394_13" function="internal">
        <lane id=":394_13_0" index="0" disallow="pedestrian tram rail_urban rail rail_electric rail_fast ship" speed="8.98" length="11.13" width="3.50" shape="815.75,591.58,0.08 814.69,593.35,0.10 811.19,595.46,0.14 806.27,596.19,0.20"/>
    </edge>
    <edge id=":394_9" function="internal">
        <lane id=":394_9_0" index="0" disallow="pedestrian tram rail_urban rail rail_electric rail_fast ship" speed="7.54" length="12.42" width="3.50" shape="806.25,592.69,0.20 809.64,592.19,0.14 812.05,590.74,0.10 813.48,588.34,0.06 813.94,584.98,0.00"/>
    </edge>
    <edge id=":394_10" function="internal">
        <lane id=":394_10_0" index="0" disallow="pedestrian tram rail_urban rail rail_electric rail_fast ship" speed="13.89" length="18.48" width="3.50" shape="806.25,592.69,0.20 824.72,592.58,0.20"/>
    </edge>
    <edge id=":394_11" function="internal">
        <lane id=":394_11_0" index="0" disallow="pedestrian tram rail_urban rail rail_electric rail_fast ship" speed="9.05" length="18.31" width="3.50" shape="806.25,592.69,0.20 811.18,593.37,0.14 814.72,595.50,0.10 816.86,599.06,0.06 817.61,604.05,0.00"/>
    </edge>
    <edge id=":431_0" function="internal">
        <lane id=":431_0_0" index="0" disallow="pedestrian tram rail_urban rail rail_electric rail_fast ship" speed="8.05" length="14.36" width="3.50" shape="813.66,554.16,0.00 813.07,550.26,0.01 811.37,547.50,0.01 808.57,545.87,0.02 804.66,545.38,0.02"/>
    </edge>
    <edge id=":431_1" function="internal">
        <lane id=":431_1_0" index="0" disallow="pedestrian tram rail_urban rail rail_electric rail_fast ship" speed="13.89" length="18.21" width="3.50" shape="813.66,554.16,0.00 813.50,535.95,0.00"/>
    </edge>
    <edge id=":431_2" function="internal">
        <lane id=":431_2_0" index="0" disallow="pedestrian tram rail_urban rail rail_electric rail_fast ship" speed="9.45" length="19.99" width="3.50" shape="813.66,554.16,0.00 814.38,548.71,0.01 816.66,544.79,0.01 820.49,542.40,0.02 825.87,541.54,0.02"/>
    </edge>
    <edge id=":431_3" function="internal">
        <lane id=":431_3_0" index="0" disallow="pedestrian tram rail_urban rail rail_electric rail_fast ship" speed="8.10" length="14.38" width="3.50" shape="825.93,545.04,0.02 822.06,545.66,0.02 819.31,547.38,0.01 817.68,550.20,0.01 817.16,554.12,0.00"/>
    </edge>
    <edge id=":431_4" function="internal">
        <lane id=":431_4_0" index="0" disallow="pedestrian tram rail_urban rail rail_electric rail_fast ship" speed="13.89" length="21.27" width="3.50" shape="825.93,545.04,0.02 804.66,545.38,0.02"/>
    </edge>
    <edge id=":431_5" function="internal">
        <lane id=":431_5_0" index="0" disallow="pedestrian tram rail_urban rail rail_electric rail_fast ship" speed="8.82" length="5.53" width="3.50" shape="825.93,545.04,0.02 820.52,544.54,0.01 820.43,544.50,0.01"/>
    </edge>
    <edge id=":431_12" function="internal">
        <lane id=":431_12_0" index="0" disallow="pedestrian tram rail_urban rail rail_electric rail_fast ship" speed="8.82" length="11.95" width="3.50" shape="820.43,544.50,0.01 816.65,542.86,0.01 814.31,540.00,0.01 813.50,535.95,0.00"/>
    </edge>
    <edge id=":431_6" function="internal">
        <lane id=":431_6_0" index="0" disallow="pedestrian tram rail_urban rail rail_electric rail_fast ship" speed="7.37" length="11.84" width="3.50" shape="817.00,535.92,0.00 817.57,538.43,0.01 819.24,540.20,0.01 822.01,541.24,0.01 825.87,541.54,0.02"/>
    </edge>
    <edge id=":431_7" function="internal">
        <lane id=":431_7_0" index="0" disallow="pedestrian tram rail_urban rail rail_electric rail_fast ship" speed="13.89" length="18.21" width="3.50" shape="817.00,535.92,0.00 817.16,554.12,0.00"/>
    </edge>
    <edge id=":431_8" function="internal">
        <lane id=":431_8_0" index="0" disallow="pedestrian tram rail_urban rail rail_electric rail_fast ship" speed="8.90" length="17.59" width="3.50" shape="817.00,535.92,0.00 816.26,539.98,0.01 813.96,542.91,0.01 810.09,544.71,0.01 804.66,545.38,0.02"/>
    </edge>
    <edge id=":431_9" function="internal">
        <lane id=":431_9_0" index="0" disallow="pedestrian tram rail_urban rail rail_electric rail_fast ship" speed="7.45" length="12.01" width="3.50" shape="804.61,541.88,0.02 808.52,541.46,0.01 811.30,540.33,0.01 812.96,538.49,0.01 813.50,535.95,0.00"/>
    </edge>
    <edge id=":431_10" function="internal">
        <lane id=":431_10_0" index="0" disallow="pedestrian tram rail_urban rail rail_electric rail_fast ship" speed="13.89" length="21.27" width="3.50" shape="804.61,541.88,0.02 825.87,541.54,0.02"/>
    </edge>
    <edge id=":431_11" function="internal">
        <lane id=":431_11_0" index="0" disallow="pedestrian tram rail_urban rail rail_electric rail_fast ship" speed="9.41" length="20.03" width="3.50" shape="804.61,541.88,0.02 810.06,542.57,0.02 813.97,544.84,0.01 816.34,548.69,0.01 817.16,554.12,0.00"/>
    </edge>
    <edge id=":519_0" function="internal">