<additional xmlns:xsi="http://www.w3.org/2001/XMLSchema-instance" xsi:noNamespaceSchemaLocation="http://sumo.dlr.de/xsd/additional_file.xsd">

	<edgeData id="dump_60" freq="60" file="aggregated_60.xml"/>
	<edgeData id="dump_300" freq="300" file="aggregated_300.xml"/>
	<edgeData id="dump_900" freq="900" file="aggregated_900.xml"/>

</additional>
