<?xml version="1.0" encoding="UTF-8"?>

<!-- generated on Mon Feb  1 12:42:29 2021 by Eclipse SUMO polyconvert Version 1.7.0
<configuration xmlns:xsi="http://www.w3.org/2001/XMLSchema-instance" xsi:noNamespaceSchemaLocation="http://sumo.dlr.de/xsd/polyconvertConfiguration.xsd">

    <input>
        <net-file value="osm.net.xml"/>
        <osm-files value="osm_bbox.osm.xml"/>
        <osm.keep-full-type value="true"/>
        <type-file value="/usr/local/share/sumo/data/typemap/osmPolyconvert.typ.xml"/>
    </input>

    <output>
        <output-file value="osm.poly.xml"/>
    </output>

    <processing>
        <poi-layer-offset value="5"/>
    </processing>

    <report>
        <verbose value="true"/>
    </report>

</configuration>
-->

<additional xmlns:xsi="http://www.w3.org/2001/XMLSchema-instance" xsi:noNamespaceSchemaLocation="http://sumo.dlr.de/xsd/additional_file.xsd">
    <location netOffset="-390479.24,-5819073.16" convBoundary="-661.64,-462.73,1715.57,1504.48" origBoundary="13.376472,52.506660,13.411328,52.524412" projParameter="+proj=utm +zone=33 +ellps=WGS84 +datum=WGS84 +units=m +no_defs"/>

    <poly id="11548677" type="natural.water" color="181,209,209" fill="0" layer="-4.00" shape="1680.044310,238.394294 1650.164228,221.337116 1517.462724,151.497929 1509.143630,143.992205 1499.544785,136.948686 1496.840386,134.994232 1480.448145,123.137664 1438.637948,94.683168 1385.558394,68.124627 1373.900384,63.463584 1350.855728,54.135588 1343.843587,52.031524 1339.221809,50.876166 1323.651643,47.069433 1258.281273,39.199821 1191.956679,43.147403 1187.690288,43.942782 1185.158969,44.911219 1182.103720,46.748067 1179.155527,49.127801 1177.053501,51.088231 1175.460170,53.026284 1174.202689,54.801124 1155.767387,90.283003 1148.120947,104.929130 1034.172581,300.826464 1031.134699,305.890032 1028.638813,310.596643 975.384792,416.798657 960.790052,458.194063 922.829676,554.109770 914.787216,570.423115 836.636850,721.800709 831.915184,758.949323 803.898416,864.682631 783.617532,919.802873 784.405941,921.376620 784.481725,923.567079 771.326732,944.667821 769.543972,944.473727 760.462460,960.710301 706.429363,1000.078284 623.944645,1099.378642 612.970655,1112.586372 600.696812,1127.469930 588.575478,1141.882768 529.855139,1213.260066 532.518071,1215.493097 522.957460,1227.223000 520.261599,1225.035218 517.989060,1229.058372 512.598603,1231.448398"/>
    <poly id="121673258" type="landuse.construction" color="194,194,130" fill="1" layer="-3.00" shape="1009.347599,597.248016 949.457710,556.412654 944.513340,554.163198 940.988540,559.604838 952.687461,568.592559 951.646223,570.006589 952.163737,570.384585 947.220954,576.781241 949.283238,578.248883 947.959739,579.791574 945.796740,581.130321 943.310166,581.652799 941.419462,581.494414 939.633503,580.855220 938.068870,579.788271 935.710190,582.711481 913.939712,613.639283 915.411202,614.485737 916.284865,615.312064 917.006170,616.308683 917.718829,618.140065 917.841680,620.006779 917.598636,621.291843 917.102572,622.493496 916.014847,623.953075 914.551751,622.872755 908.921171,631.309930 925.557248,643.148053 902.949807,680.092257 881.818732,724.514972 882.057658,734.368739 900.880000,735.831854 897.982079,739.534850 911.192771,742.324240 923.779221,746.351542 936.804314,751.181468 960.430893,765.735647 981.229478,777.047705 990.839442,766.230145 1010.553610,738.708761 943.519241,696.429431 1009.347599,597.248016"/>
    <poly id="121674885" type="building.yes" color="255,230,230" fill="1" layer="-1.00" shape="802.480156,364.038078 793.152845,359.471351 790.307714,365.254095 799.635017,369.820817 801.083493,366.873234 802.480156,364.038078"/>
    <poly id="121674886" type="building.apartments" color="255,230,230" fill="1" layer="-1.00" shape="828.173435,215.237020 828.277070,215.012169 827.751983,214.600970 827.533114,213.915915 827.729896,213.299530 828.121612,212.901372 827.995029,212.703884 851.995280,195.925127 859.482907,206.608453 854.279411,210.140051 854.811897,210.884916 854.957843,212.873520 854.528001,213.695370 860.663934,216.697250 854.975806,228.373877 828.173435,215.237020"/>
    <poly id="138554284" type="landuse.commercial" color="209,209,204" fill="1" layer="-3.00" shape="61.711941,142.202292 46.105900,140.781712 46.057753,141.361427 42.903694,141.187102 42.161900,150.829114 41.726618,150.794331 40.386987,168.316966 40.808696,168.352053 40.056325,178.127834 39.452945,186.064220 38.044762,204.467476 37.051432,217.130710 50.630464,218.084676 50.645428,217.539086 53.297548,217.735757 53.255193,218.270832 54.472309,218.354911 56.812537,218.569682 58.703173,218.716606 58.758852,218.170106 61.139545,218.372847 61.103974,218.907770 73.441469,219.900668 111.192311,222.807416 113.953492,223.023940 113.898055,223.581562 152.839299,226.595575 152.875625,226.094019 155.398807,226.293625 156.648297,210.798280 158.583128,187.987890 149.785890,187.138289 145.703549,186.739816 114.083750,183.562331 114.071093,183.907571 107.209670,183.404281 90.529075,182.196735 88.026223,181.996708 83.469618,181.642264 85.275261,157.621805 60.803781,155.642551 61.711941,142.202292"/>
    <poly id="138554286" type="landuse.commercial" color="209,209,204" fill="1" layer="-3.00" shape="54.755051,515.056865 91.532116,517.929507 92.347586,517.966927 92.912251,518.021079 92.886028,518.366623 95.306789,518.546225 98.054234,518.763041 98.087243,518.417345 106.275049,519.057893 106.231698,519.548479 123.147386,520.695150 123.180893,520.371699 124.492678,520.442551 128.253604,520.748026 131.939644,521.044049 161.673200,523.451365 193.034678,525.800271 195.868584,524.112381 196.739667,512.041679 197.554487,500.795681 198.020940,494.320097 198.442214,488.557693 198.624924,485.793955 199.009542,479.909964 199.545843,471.696907 201.324800,450.114050 164.877569,447.133056 158.321362,446.600639 153.914286,446.242799 149.085525,445.849868 133.470139,444.573913 116.983984,443.217307 112.324601,442.809501 110.311172,442.631919 108.542761,442.482248 106.434338,442.306789 104.555870,442.092812 104.389995,444.088370 104.128069,447.254479 103.337249,456.830813 102.541884,466.507397 102.269124,469.796153 101.782591,475.671304 94.947471,475.111819 94.493212,480.607909 57.066546,477.538326 40.187919,476.235262 19.764942,474.599763 17.949041,474.451187 16.381503,493.915156 27.079095,494.766531 30.602068,495.054996 35.050322,495.434058 34.896791,499.499092 33.781394,513.377981 54.755051,515.056865"/>
    <poly id="138554287" type="landuse.commercial" color="209,209,204" fill="1" layer="-3.00" shape="29.374184,314.380116 53.113799,316.453435 72.071247,318.099583 83.233355,319.063120 104.197473,320.887116 109.720719,321.364645 118.120442,322.056129 135.681843,323.511147 145.850010,324.352361 168.267410,326.199819 187.569834,327.794200 210.952969,329.720447 212.131338,314.682940 213.833573,293.001659 215.107055,276.749117 216.301597,261.522082 216.924859,253.551900 209.537830,252.915539 194.342066,251.607751 166.052226,249.167951 151.468628,247.913395 147.598181,247.576957 141.146968,247.197997 129.994479,246.367640 122.479988,245.801022 115.421123,245.268750 104.955461,244.489877 97.189398,243.906660 95.074600,243.753601 84.540826,242.965166 80.446940,242.656027 71.754299,241.926636 46.811790,239.813331 35.235073,238.836882 32.230605,277.550439 29.374184,314.380116"/>
    <poly id="143296211" type="landuse.commercial" color="209,209,204" fill="1" layer="-3.00" shape="489.671968,352.396255 493.780941,298.179974 531.489363,301.057490 551.793500,302.519741 552.335197,293.605586 552.637290,290.705681 550.766813,290.546992 551.505572,280.115095 551.989241,270.423297 585.666319,273.045956 585.032313,282.696581 582.954555,305.576682 581.664156,318.680343 580.949056,329.567941 580.694374,333.379254 580.479773,346.013887 580.403545,355.407303 491.749193,354.219465 490.477939,353.836037 489.671968,352.396255"/>
    <poly id="145095631" type="building.yes" color="255,230,230" fill="1" layer="-1.00" shape="896.657952,583.098875 893.487391,591.347981 885.817388,588.024015 889.386904,580.010863 896.657952,583.098875"/>
    <poly id="146594546" type="building.yes" color="255,230,230" fill="1" layer="-1.00" shape="484.411054,496.671926 491.415712,497.228177 490.794637,505.009094 495.541383,505.381929 495.260239,508.915648 499.129704,509.218992 498.518971,516.855018 501.762704,517.105525 500.499331,532.934892 500.484174,533.168910 499.729284,533.107818 498.321590,550.687439 498.252939,551.568050 493.601231,551.193099 479.442545,550.072803 479.474343,549.671500 478.998142,549.626463 479.629046,541.678409 480.792038,541.774924 481.682577,531.462031 482.538855,519.914733 481.362288,519.818520 481.972746,512.171369 482.734425,512.232307 483.043296,508.419778 482.621621,508.384654 483.268439,500.235950 483.696900,500.270923 483.802648,498.922125 483.962632,496.960098 484.384060,496.984100 484.411054,496.671926"/>
    <poly id="146824851" type="building.yes" color="255,230,230" fill="1" layer="-1.00" shape="739.575809,205.085626 721.543681,177.244185 721.322717,177.382624 718.214998,172.566621 718.687279,167.237132 718.925273,167.254101 720.151077,153.973886 719.858550,153.947000 720.239191,149.687797 719.321141,149.619165 720.088353,141.367691 720.961375,141.548599 721.315007,137.601569 725.387081,137.844963 725.420371,136.898376 733.646196,137.394488 733.599332,138.341375 737.800333,138.581916 737.646002,139.275255 739.251989,138.527426 739.171172,138.251031 745.022890,134.560259 745.207716,134.934494 753.153011,129.828550 753.017168,129.519993 759.699229,125.310061 764.135813,137.385174 757.213053,141.455785 763.270515,150.701880 767.885511,147.572717 769.972508,153.201469 770.942286,155.906206 767.564255,157.872890 772.399487,165.276689 774.092450,164.471303 779.235442,178.400185 774.813551,181.358138 763.620358,188.783931 739.575809,205.085626"/>
    <poly id="146824852" type="building.yes" color="255,230,230" fill="1" layer="-1.00" shape="587.598767,247.598608 589.239495,227.654797 604.923254,228.930703 604.485777,234.292818 602.230333,261.705800 594.463395,261.077308 586.539891,260.430054 587.598767,247.598608"/>
    <poly id="147030010" type="building.yes" color="255,230,230" fill="1" layer="-1.00" shape="880.696629,159.379762 881.187661,160.092167 881.014193,160.229545 877.339588,154.947532 872.780053,158.130998 873.495136,159.150006 867.785485,163.126789 861.251758,153.824370 866.259521,150.341634 865.524078,149.323079 880.419961,138.944491 881.182053,139.940203 885.955795,136.618464 885.173594,135.634325 899.895843,125.382055 900.584275,126.423912 905.719050,122.849382 904.956962,121.853667 920.006865,111.371643 927.275718,121.681581 922.114276,125.278935 923.685076,127.536399 922.000460,128.719886 922.884066,129.991100 919.614650,132.266841 920.112958,133.001344 919.925422,133.116777 917.843975,130.180723 916.244796,127.868252 911.725432,131.028534 912.399796,132.048450 902.946041,138.634163 904.516847,140.891622 902.858889,142.052269 903.709062,143.346476 900.439664,145.622231 900.937727,146.345609 900.757225,146.472015 896.995898,141.258676 892.449662,144.430700 893.164743,145.449711 883.196185,152.391835 884.766995,154.649287 883.082151,155.821665 883.966009,157.103994 880.696629,159.379762"/>
    <poly id="147065881" type="building.yes" color="255,230,230" fill="1" layer="-1.00" shape="793.723857,352.470535 793.171780,353.595550 792.128542,353.084581 790.335251,356.707477 791.412909,357.239937 790.860586,358.353831 793.152845,359.471351 802.480156,364.038078 804.169082,360.606672 805.364286,358.176582 793.723857,352.470535"/>
    <poly id="147065882" type="building.apartments" color="255,230,230" fill="1" layer="-1.00" shape="811.119738,346.487263 794.009310,338.109578 791.124933,343.959958 796.595154,346.642702 808.235593,352.348756 809.625726,349.524874 811.119738,346.487263"/>
    <poly id="147065883" type="building.yes" color="255,230,230" fill="1" layer="-1.00" shape="799.635017,369.820817 790.307714,365.254095 787.919227,364.083074 784.995890,370.012217 796.711670,375.749953 798.121404,372.892250 799.635017,369.820817"/>
    <poly id="147065884" type="building.apartments" color="255,230,230" fill="1" layer="-1.00" shape="825.456802,317.381986 802.025015,305.906403 799.218577,311.599261 822.650345,323.074830 824.001510,320.329711 825.456802,317.381986"/>
    <poly id="147065885" type="building.residential" color="255,230,230" fill="1" layer="-1.00" shape="828.276096,311.655476 816.429801,305.853792 815.371150,308.013786 810.003915,305.384373 811.153612,303.044316 804.928552,299.999968 802.025015,305.906403 825.456802,317.381986 827.015728,314.209409 828.276096,311.655476"/>
    <poly id="147065886" type="building.yes" color="255,230,230" fill="1" layer="-1.00" shape="813.971444,340.693259 796.861001,332.315563 794.009310,338.109578 811.119738,346.487263 812.354181,343.989539 813.971444,340.693259"/>
    <poly id="147065887" type="building.apartments" color="255,230,230" fill="1" layer="-1.00" shape="845.311680,276.570503 824.384621,266.307791 822.071724,265.179586 819.278562,270.861008 842.511713,282.252062 843.836993,279.563163 845.311680,276.570503"/>
    <poly id="147065888" type="building.apartments" color="255,230,230" fill="1" layer="-1.00" shape="813.542361,282.505374 810.664463,288.344469 833.904341,299.735331 835.229364,297.035307 836.782012,293.885128 813.542361,282.505374"/>
    <poly id="147065890" type="building.yes" color="255,230,230" fill="1" layer="-1.00" shape="822.650345,323.074830 799.218577,311.599261 796.256454,317.618277 798.754763,318.842503 819.688201,329.093832 821.156071,326.101315 822.650345,323.074830"/>
    <poly id="147065891" type="building.apartments" color="255,230,230" fill="1" layer="-1.00" shape="848.206035,270.553024 836.620482,264.879036 841.492769,254.989773 832.199471,250.433339 824.384621,266.307791 845.311680,276.570503 846.636717,273.870482 848.206035,270.553024"/>
    <poly id="147065892" type="building.apartments" color="255,230,230" fill="1" layer="-1.00" shape="839.633782,288.091140 816.400897,276.711221 813.542361,282.505374 836.782012,293.885128 838.139732,291.128741 839.633782,288.091140"/>
    <poly id="147065893" type="building.apartments" color="255,230,230" fill="1" layer="-1.00" shape="833.904341,299.735331 810.664463,288.344469 807.754373,294.262173 813.979438,297.306525 819.346680,299.935942 830.993984,305.641900 832.299634,302.986815 833.904341,299.735331"/>
    <poly id="147065894" type="building.apartments" color="255,230,230" fill="1" layer="-1.00" shape="819.688201,329.093832 798.754763,318.842503 795.883445,324.670335 799.699622,326.544096 816.817112,334.932773 818.401934,331.703980 819.688201,329.093832"/>
    <poly id="147065895" type="building.yes" color="255,230,230" fill="1" layer="-1.00" shape="816.817112,334.932773 799.699622,326.544096 796.861001,332.315563 813.971444,340.693259 815.212428,338.184262 816.817112,334.932773"/>
    <poly id="147065897" type="building.yes" color="255,230,230" fill="1" layer="-1.00" shape="808.235593,352.348756 796.595154,346.642702 793.723857,352.470535 805.364286,358.176582 806.799939,355.262669 808.235593,352.348756"/>
    <poly id="147065898" type="building.apartments" color="255,230,230" fill="1" layer="-1.00" shape="848.206035,270.553024 857.314294,252.079444 859.613763,247.399354 850.464693,242.917580 838.734855,237.168893 832.199471,250.433339 841.492769,254.989773 836.620482,264.879036 848.206035,270.553024"/>
    <poly id="147065899" type="building.apartments" color="255,230,230" fill="1" layer="-1.00" shape="842.511713,282.252062 819.278562,270.861008 816.400897,276.711221 839.633782,288.091140 840.998044,285.323481 842.511713,282.252062"/>
    <poly id="147082781" type="landuse.grass" color="194,194,130" fill="1" layer="-3.00" shape="375.307543,196.696841 377.746702,167.833028 383.790352,168.199127 387.526723,169.829546 390.411120,172.224500 391.900426,173.860469 393.068724,175.715016 394.801639,179.448684 395.924086,183.207079 396.598471,186.051860 397.574906,190.570188 398.052270,194.932718 398.219323,199.079607 398.174189,203.453776 381.621706,202.197881 380.630179,200.050080 379.493637,198.706701 378.078538,197.658847 376.508760,196.981652 375.307543,196.696841"/>
    <poly id="147082782" type="landuse.grass" color="194,194,130" fill="1" layer="-3.00" shape="374.024020,211.914672 371.595518,240.644722 376.631549,241.801068 379.548714,241.402245 382.450669,240.625422 385.877481,238.724144 388.346477,236.187676 391.245223,231.304830 393.728069,226.342230 395.279306,221.311362 396.467342,216.433245 397.239680,212.398962 397.735790,208.459853 381.268716,207.380099 379.803586,209.571504 378.510709,210.657434 377.007325,211.436481 375.069259,211.902512 374.024020,211.914672"/>
    <poly id="147082783" type="landuse.grass" color="194,194,130" fill="1" layer="-3.00" shape="393.184450,167.500238 431.942028,170.186739 434.275919,172.861040 432.796687,175.030486 431.225033,177.012821 429.002597,179.343477 426.502296,181.391005 423.787528,182.953693 420.883355,184.242410 416.330705,184.978078 412.230017,184.668813 408.422890,183.518440 404.487619,181.491841 401.582823,178.485314 398.894174,175.429463 393.184450,167.500238"/>
    <poly id="147082784" type="amenity.parking_space" color="237,199,199" fill="1" layer="-1.00" shape="346.425863,431.811093 353.205232,432.305405 358.939016,354.807080 352.526947,354.349081 346.425863,431.811093"/>
    <poly id="147228425" type="leisure.playground" color="207,245,201" fill="1" layer="-2.00" shape="857.436133,143.104100 853.695579,145.256806 851.564148,136.702447 845.117468,124.593961 838.500727,128.079030 823.687974,99.364619 820.462378,100.860522 820.997830,96.842703 822.876344,71.352187 825.846075,71.787039 905.171063,85.884516 920.985376,97.629622 857.436133,143.104100"/>
    <poly id="147237713" type="building.office" color="255,230,230" fill="1" layer="-1.00" shape="583.530392,82.655245 578.289615,82.371191 567.769181,81.581411 535.052037,79.137771 515.847514,77.706728 514.627235,93.957966 511.073820,141.129171 510.067698,154.493591 519.241446,155.179674 548.496740,157.366367 570.693335,159.031429 577.377444,159.806373 583.530392,82.655245"/>
    <poly id="148870945" type="leisure.playground" color="207,245,201" fill="1" layer="-2.00" shape="919.987796,164.717777 1011.954582,99.541910 1004.373403,91.675713 1001.866419,93.433767 979.133626,109.549396 914.046996,155.513423 919.987796,164.717777"/>
    <poly id="157099365" type="building.yes" color="255,230,230" fill="1" layer="-1.00" shape="460.960634,470.031410 425.349262,467.374838 424.270340,480.807680 423.782337,486.938754 442.416332,488.426597 441.017743,507.931119 443.438738,508.122015 459.889630,509.435983 460.426654,509.468537 463.675886,473.376015 460.960634,470.031410"/>
    <poly id="157099366" type="building.yes" color="255,230,230" fill="1" layer="-1.00" shape="439.513904,545.876495 440.194652,545.961484 440.163894,545.494808 441.402514,545.634140 441.526830,546.643987 457.018902,547.890272 460.363804,510.304509 459.362412,510.148763 459.384352,509.914594 459.826383,509.949263 459.889630,509.435983 443.438738,508.122015 442.380782,521.888215 445.538042,522.218504 444.822850,532.171416 441.106981,531.753420 440.934137,533.137097 440.621275,533.110681 439.513904,545.876495"/>
    <poly id="157099367" type="building.yes" color="255,230,230" fill="1" layer="-1.00" shape="405.646562,479.475465 424.270340,480.807680 425.349262,467.374838 392.682073,464.931122 392.596151,465.645206 391.599179,478.486467 405.646562,479.475465"/>
    <poly id="157099368" type="building.yes" color="255,230,230" fill="1" layer="-1.00" shape="385.905675,541.351000 388.230118,513.747152 388.767391,513.790820 388.766779,512.544537 381.203754,511.911852 380.706794,517.942984 381.924324,518.049387 381.091835,528.216353 372.835501,527.543492 365.769304,526.966527 364.675509,540.332955 371.979665,540.926871 384.935451,541.984638 384.955901,541.683736 385.874132,541.763426 385.905675,541.351000"/>
    <poly id="157099369" type="building.yes" color="255,230,230" fill="1" layer="-1.00" shape="418.821336,544.000544 419.481459,535.539957 420.924031,516.490678 402.767921,514.814232 388.767391,513.790820 388.230118,513.747152 385.905675,541.351000 387.652692,541.456736 387.608723,542.225523 388.499318,542.283574 388.548455,542.660820 392.868451,543.076445 392.881067,542.119186 412.086062,543.649823 412.088747,544.684635 416.108209,545.017954 416.159862,544.593953 417.083143,544.595643 417.114041,543.849402 418.821336,544.000544"/>
    <poly id="157099372" type="building.yes" color="255,230,230" fill="1" layer="-1.00" shape="390.832872,488.273615 391.599179,478.486467 392.596151,465.645206 366.082268,463.632094 366.113159,462.885853 354.458855,462.055060 352.960031,482.529958 354.163504,482.614413 364.456987,483.308615 364.646605,482.069220 375.488951,482.717831 383.434570,483.152813 382.630754,493.997925 390.292517,494.795328 390.622017,490.693012 404.569568,491.773250 404.784146,489.520686 390.832872,488.273615"/>
    <poly id="157099374" type="building.yes" color="255,230,230" fill="1" layer="-1.00" shape="352.758197,500.583507 365.531481,501.367102 373.845116,502.172208 375.488951,482.717831 364.646605,482.069220 364.456987,483.308615 354.163504,482.614413 352.758197,500.583507"/>
    <poly id="157099375" type="building.yes" color="255,230,230" fill="1" layer="-1.00" shape="348.816732,539.084006 364.675509,540.332955 365.769304,526.966527 363.627251,526.802836 364.319598,519.487668 364.742958,509.240795 364.837706,506.790601 362.211414,506.526425 362.240353,504.778739 365.259695,505.011901 365.531481,501.367102 352.758197,500.583507 351.948768,500.512525 351.866727,501.705012 351.547821,501.712120 350.341005,518.230196 348.816732,539.084006"/>
    <poly id="187955354" type="landuse.commercial" color="209,209,204" fill="1" layer="-3.00" shape="1061.215304,151.006663 1064.041413,155.384002 1064.876056,155.365524 1087.348766,176.266403 1084.887899,178.880218 1086.457900,180.492349 1093.446063,187.036480 1068.718944,229.590485 1060.533271,243.469776 1058.960627,246.030558 1055.935761,251.071565 1039.162862,276.936284 1032.883472,287.679942 1026.887401,297.727424 1024.957402,296.412603 1013.423193,316.030093 990.401935,355.542312 970.258852,393.188201 959.849328,420.648128 949.943238,449.988616 924.467242,527.233676 846.599060,501.675750 819.006367,492.629230 822.059425,483.370069 844.480932,415.383605 854.220670,385.913045 881.852682,300.897251 886.217605,288.637978 890.294310,280.524571 895.886556,272.177264 899.372531,268.038391 906.027780,261.091859 925.080791,247.460988 939.506916,237.337793 991.413105,200.779553 1061.215304,151.006663"/>
    <poly id="188036510" type="landuse.commercial" color="209,209,204" fill="1" layer="-3.00" shape="300.263854,535.081048 301.273216,522.806992 305.836764,523.183728 306.535922,514.655483 302.184574,512.226526 303.175142,497.282253 303.724735,490.571150 305.079422,474.906590 306.393746,458.953612 315.510364,459.840867 320.740665,460.280647 324.155073,460.571744 333.160143,461.327986 327.056826,537.143208 317.611598,536.430177 312.848655,535.635026 300.263854,535.081048"/>
    <poly id="188036511" type="landuse.residential" color="235,235,227" fill="1" layer="-3.00" shape="577.377444,159.806373 570.693335,159.031429 548.496740,157.366367 519.241446,155.179674 510.067698,154.493591 511.073820,141.129171 514.627235,93.957966 515.847514,77.706728 535.052037,79.137771 567.769181,81.581411 578.289615,82.371191 583.530392,82.655245 577.377444,159.806373"/>
    <poly id="188036512" type="landuse.residential" color="235,235,227" fill="1" layer="-3.00" shape="348.816732,539.084006 364.675509,540.332955 384.935451,541.984638 384.955901,541.683736 385.874132,541.763426 385.905675,541.351000 387.652692,541.456736 387.608723,542.225523 388.499318,542.283574 388.548455,542.660820 392.868451,543.076445 392.881067,542.119186 412.086062,543.649823 412.088747,544.684635 416.108209,545.017954 416.159862,544.593953 417.083143,544.595643 417.114041,543.849402 418.821336,544.000544 439.513904,545.876495 440.194652,545.961484 440.163894,545.494808 441.402514,545.634140 441.526830,546.643987 457.018902,547.890272 460.363804,510.304509 459.362412,510.148763 459.384352,509.914594 459.826383,509.949263 459.889630,509.435983 460.426654,509.468537 463.675886,473.376015 460.960634,470.031410 425.349262,467.374838 392.682073,464.931122 392.596151,465.645206 366.082268,463.632094 366.113159,462.885853 354.458855,462.055060 352.960031,482.529958 354.163504,482.614413 352.758197,500.583507 351.948768,500.512525 351.866727,501.705012 351.547821,501.712120 348.816732,539.084006"/>
    <poly id="188036515" type="landuse.residential" color="235,235,227" fill="1" layer="-3.00" shape="306.535922,514.655483 302.184574,512.226526 303.175142,497.282253 303.724735,490.571150 305.079422,474.906590 306.393746,458.953612 296.797599,458.177215 287.160488,457.390623 270.504556,456.026161 249.509655,454.313440 223.903616,452.225203 222.820275,465.435654 222.189358,473.061052 220.684243,490.186725 220.219254,495.816570 219.766596,501.390502 219.413574,505.649146 218.987150,510.877535 218.374202,519.003278 217.745622,526.428328 219.655649,528.666878 236.215619,529.999917 243.246418,530.510719 260.969869,531.962543 287.337150,534.111876 287.683939,534.137526 287.732109,533.557813 294.131871,534.082760 300.062213,534.562544 300.018843,535.053128 300.263854,535.081048 301.273216,522.806992 305.836764,523.183728 306.535922,514.655483"/>
    <poly id="188036518" type="landuse.residential" color="235,235,227" fill="1" layer="-3.00" shape="939.234540,217.392044 898.342234,246.985555 893.782142,251.671244 891.425076,251.612235 868.782621,240.530547 824.042275,332.569179 790.960871,399.267842 747.046399,378.866638 735.165823,376.715772 639.508984,359.167395 580.214541,355.456017 580.466910,345.435537 580.681512,332.800904 580.936441,329.000712 582.941694,304.998331 583.686055,296.647183 585.019451,282.118231 585.666319,273.045956 606.728058,274.380314 613.367062,277.103639 642.210483,279.121980 648.624601,276.920813 688.119568,262.122552 693.518893,261.301561 736.203619,270.902464 747.604415,273.753906 756.660218,275.867379 760.824511,264.369117 766.133661,255.816516 771.723543,249.817040 813.180276,219.686922 816.395685,220.795098 823.269889,216.681134 822.792047,213.809686 824.142138,211.932547 898.811390,160.369023 939.234540,217.392044"/>
    <poly id="188036527" type="landuse.residential" color="235,235,227" fill="1" layer="-3.00" shape="507.607494,201.362289 522.298682,202.571001 544.526930,204.446657 545.425480,194.178121 546.466599,178.720938 526.951460,177.652860 509.890547,177.042116 507.607494,201.362289"/>
    <poly id="188228152" type="landuse.commercial" color="209,209,204" fill="1" layer="-3.00" shape="490.000975,473.012539 489.244882,473.507857 488.660064,472.853216 485.648074,475.390596 486.240173,476.067330 485.434503,476.775178 483.990036,493.921642 483.846640,496.628851 484.411054,496.671926 484.384060,496.984100 483.962632,496.960098 483.802648,498.922125 483.696900,500.270923 483.268439,500.235950 482.621621,508.384654 483.043296,508.419778 482.734425,512.232307 481.972746,512.171369 481.362288,519.818520 482.538855,519.914733 481.682577,531.462031 480.792038,541.774924 479.629046,541.678409 478.998142,549.626463 479.474343,549.671500 479.442545,550.072803 493.601231,551.193099 498.252939,551.568050 498.321590,550.687439 498.450756,550.695691 498.508807,549.948847 513.708590,551.179561 528.832489,552.356371 528.794892,552.802313 536.486251,553.410112 536.428194,554.156955 547.901261,555.092354 559.393690,555.982838 559.452740,555.280483 567.314213,555.906801 568.822125,537.023046 570.586476,515.017851 574.075214,515.296339 574.745118,506.957969 576.284396,487.650672 576.957622,487.702464 577.584386,479.865798 540.827064,476.955688 534.828834,476.477122 534.796041,476.833936 534.551276,476.817127 534.572478,476.549592 523.235672,475.644569 490.000975,473.012539"/>
    <poly id="188228153" type="landuse.commercial" color="209,209,204" fill="1" layer="-3.00" shape="734.306892,469.483557 734.285956,470.986250 734.419963,472.129419 734.887552,473.009244 735.729814,473.947514 737.399633,474.856278 739.785102,475.281790 752.315345,477.351467 761.903613,479.920473 799.092721,490.367174 801.397247,490.816767 803.424558,490.705005 805.189581,489.786750 806.614100,488.208395 807.331965,486.601214 823.691680,436.086003 824.009222,433.875689 823.875479,432.131622 823.237275,429.987027 822.528137,428.622939 821.776684,427.493470 820.403815,426.199749 818.922999,425.242252 816.446585,424.084297 745.114894,390.326464 744.323342,390.143744 743.613839,390.293031 743.067809,390.772516 742.784448,391.769167 734.306892,469.483557"/>
    <poly id="188228155" type="landuse.commercial" color="209,209,204" fill="1" layer="-3.00" shape="544.526930,204.446657 522.298682,202.571001 507.607494,201.362289 506.973458,208.564849 504.293970,208.357414 503.821083,213.954010 503.099257,223.617732 505.472888,223.809718 504.933136,229.452312 503.782627,243.342948 502.992108,253.275263 521.278164,254.648774 540.713132,257.009409 561.351920,258.553282 586.539891,260.430054 594.463395,261.077308 602.230333,261.705800 604.485777,234.292818 604.339477,221.911023 589.523159,220.871765 589.513851,212.515123 589.507109,196.335704 589.381365,190.986111 587.621182,181.744810 546.466599,178.720938 545.425480,194.178121 544.526930,204.446657"/>