<types xmlns:xsi="http://www.w3.org/2001/XMLSchema-instance" xsi:noNamespaceSchemaLocation="http://sumo.dlr.de/xsd/types_file.xsd">
    <type id="railway.rail"       oneway="false"/>
    <type id="railway.tram"       oneway="false"/>
    <type id="railway.light_rail" oneway="false"/>
    <type id="railway.subway"     oneway="false"/>
    <type id="railway.preserved"  oneway="false"/>
</types>
