<types xmlns:xsi="http://www.w3.org/2001/XMLSchema-instance" xsi:noNamespaceSchemaLocation="http://sumo.dlr.de/xsd/types_file.xsd">
    <type id="sidewalk"      priority="-2" speed="2.78"  width="2.50" allow="pedestrian"   />
</types>
