<types xmlns:xsi="http://www.w3.org/2001/XMLSchema-instance" xsi:noNamespaceSchemaLocation="http://sumo.dlr.de/xsd/types_file.xsd">
    <type id="biking"        priority="-1" speed="5.56"  width="1.50" allow="bicycle"      />
</types>
