<routes>
  <!-- Public Transports -->
  <vType vClass="bus"  id="bus"   personCapacity="50" latAlignment="center" tau="1.5" speedDev="0.1" lcCooperative="0.0">
    <param key="has.rerouting.device" value="false"/>
  </vType>
  <vType vClass="rail" id="train" personCapacity="500">
    <param key="has.rerouting.device" value="false"/>
  </vType>

  <vTypeDistribution id="on-demand">
    <vType vClass="taxi"       id="taxi"  personCapacity="4" latAlignment="center" probability=".50" tau="1.5" speedDev="0.1"/>
    <vType vClass="passenger"  id="uber"  personCapacity="8" latAlignment="center" probability=".50" tau="1.5" speedDev="0.1"/>
  </vTypeDistribution>

  <!-- Vulnerable Road Users -->
  <vType vClass="pedestrian"   id="pedestrian"  speedDev="0.1" latAlignment="compact"/>
  <vType vClass="bicycle"      id="bicycle"     speedDev="0.1" latAlignment="compact"/>

  <!-- Normal vehicles -->
  <vType vClass="motorcycle"   id="motorcycle"  personCapacity="2" latAlignment="arbitrary" lcPushy="1.0" minGapLat="0.5" tau="1.5" speedDev="0.1"/>
  <vTypeDistribution id="passenger">
    <vType vClass="passenger"  id="passenger1"  personCapacity="4" latAlignment="center" sigma="0.25" probability=".20" tau="1.5" speedDev="0.1" guiShape="passenger"/>
    <vType vClass="passenger"  id="passenger2a" personCapacity="4" latAlignment="center" sigma="0.30" probability=".20" tau="1.5" speedDev="0.1" guiShape="passenger/sedan"/>
    <vType vClass="passenger"  id="passenger2b" personCapacity="4" latAlignment="center" sigma="0.35" probability=".20" tau="1.5" speedDev="0.1" guiShape="passenger/hatchback"/>
    <vType vClass="passenger"  id="passenger3"  personCapacity="6" latAlignment="center" sigma="0.40" probability=".20" tau="1.5" speedDev="0.1" guiShape="passenger/wagon"/>
    <vType vClass="passenger"  id="passenger4"  personCapacity="6" latAlignment="center" sigma="0.50" probability=".20" tau="1.5" speedDev="0.1" guiShape="passenger/van"/>
  </vTypeDistribution>

  <!-- Special vehicles -->
  <vTypeDistribution id="special">
    <vType vClass="emergency" id="emergency" latAlignment="center" probability=".60" tau="1.5" speedDev="0.1"/>
    <vType vClass="authority" id="authority" latAlignment="center" probability=".39" tau="1.5" speedDev="0.1"/>
    <vType vClass="army"      id="army"      latAlignment="center" probability=".01" tau="1.5" speedDev="0.1"/>
  </vTypeDistribution>

  <!-- Other vehicles -->
  <vTypeDistribution id="commercial">
    <vType vClass="delivery"   id="delivery"    containerCapacity="15" latAlignment="center" probability=".75" tau="1.5" speedDev="0.1" lcCooperative="0.0"/>
    <vType vClass="truck"      id="truck"       containerCapacity="5"  latAlignment="center" probability=".05" tau="1.5" speedDev="0.1" lcCooperative="0.0"/>
    <vType vClass="trailer"    id="trailer"     containerCapacity="5"  latAlignment="center" probability=".10" tau="1.5" speedDev="0.1" lcCooperative="0.0"/>
    <vType vClass="coach"      id="coach"       containerCapacity="50" latAlignment="center" probability=".10" tau="1.5" speedDev="0.1" lcCooperative="0.0"/>
  </vTypeDistribution>

  <vType vClass="evehicle"     id="evehicle"    personCapacity="4"     latAlignment="center" tau="1.5" speedDev="0.1"/>
</routes>
