<?xml version="1.0" encoding="UTF-8"?>
<!-- generated on 2019-12-05 09:16:30.672731 by generateContinuousRerouters.py
  options: -n large.net.xml -o input_additional.add.xml -T 1,1,1,0 -e 86400
-->
<additional xmlns:xsi="http://www.w3.org/2001/XMLSchema-instance" xsi:noNamespaceSchemaLocation="http://sumo.dlr.de/xsd/additional_file.xsd">
    <route id="A1A0_A0B0" edges="A1A0 A0B0 B0C0"/>
    <route id="B0A0_-A1A0" edges="B0A0 -A1A0"/>
    <route id="B0A0_-gneE24" edges="B0A0 -gneE24 A1A0 A0B0 B0C0"/>
    <rerouter id="rr_B0A0" edges="B0A0">
        <interval begin="0" end="86400">
            <routeProbReroute id="B0A0_-A1A0" probability="1.0"/>
            <routeProbReroute id="B0A0_-gneE24" probability="1.0"/>
        </interval>
    </rerouter>
    <route id="gneE28_A0B0" edges="gneE28 A0B0 B0C0"/>
    <route id="-A1A0_A1B1" edges="-A1A0 A1B1 B1C1 C1D1 D1E1"/>
    <route id="-A1A0_gneE28" edges="-A1A0 gneE28 A0B0 B0C0"/>
    <rerouter id="rr_-A1A0" edges="-A1A0">
        <interval begin="0" end="86400">
            <routeProbReroute id="-A1A0_A1B1" probability="1.0"/>
            <routeProbReroute id="-A1A0_gneE28" probability="1.0"/>
        </interval>
    </rerouter>
    <route id="-gneE24_A1A0" edges="-gneE24 A1A0 A0B0 B0C0"/>
    <route id="B1A1_A1A0" edges="B1A1 A1A0 A0B0 B0C0"/>
    <route id="-gneE1_-gneE0" edges="-gneE1 -gneE0 D1E1"/>
    <route id="-gneE1_-gneE20" edges="-gneE1 -gneE20 -gneE19 -gneE18 -gneE16 -gneE14"/>
    <rerouter id="rr_-gneE1" edges="-gneE1">
        <interval begin="0" end="86400">
            <routeProbReroute id="-gneE1_-gneE0" probability="1.0"/>
            <routeProbReroute id="-gneE1_-gneE20" probability="1.0"/>
        </interval>
    </rerouter>
    <route id="gneE0_gneE1" edges="gneE0 gneE1 gneE2 gneE3 gneE6"/>
    <route id="gneE20_gneE1" edges="gneE20 gneE1 gneE2 gneE3 gneE6"/>
    <route id="-gneE0_D1E1" edges="-gneE0 D1E1"/>
    <route id="C1D1_D1E1" edges="C1D1 D1E1"/>
    <route id="E1D1_D1C1" edges="E1D1 D1C1 C1B1"/>
    <route id="E1D1_gneE0" edges="E1D1 gneE0 gneE1 gneE2 gneE3 gneE6"/>
    <rerouter id="rr_E1D1" edges="E1D1">
        <interval begin="0" end="86400">
            <routeProbReroute id="E1D1_D1C1" probability="1.0"/>
            <routeProbReroute id="E1D1_gneE0" probability="1.0"/>
        </interval>
    </rerouter>
    <route id="-gneE2_-gneE1" edges="-gneE2 -gneE1"/>
    <route id="gneE1_gneE2" edges="gneE1 gneE2 gneE3 gneE6"/>
    <route id="B0C0_-gneE10" edges="B0C0 -gneE10 -gneE9 -gneE8 -gneE7 -gneE6 -gneE6.88 -gneE3 -gneE2 -gneE1"/>
    <route id="B0C0_C0D0" edges="B0C0 C0D0"/>
    <rerouter id="rr_B0C0" edges="B0C0">
        <interval begin="0" end="86400">
            <routeProbReroute id="B0C0_-gneE10" probability="1.0"/>
            <routeProbReroute id="B0C0_C0D0" probability="1.0"/>
        </interval>
    </rerouter>
    <route id="D0C0_C0B0" edges="D0C0 C0B0"/>
    <route id="gneE10_C0B0" edges="gneE10 C0B0"/>
    <route id="-gneE10_-gneE9" edges="-gneE10 -gneE9 -gneE8 -gneE7 -gneE6 -gneE6.88 -gneE3 -gneE2 -gneE1"/>
    <route id="gneE9_gneE10" edges="gneE9 gneE10 C0B0"/>
    <route id="-gneE14.122_-gneE12" edges="-gneE14.122 -gneE12 D0C0 C0B0"/>
    <route id="-gneE14.122_-gneE32" edges="-gneE14.122 -gneE32 F0F1 F1E1 E1D1"/>
    <rerouter id="rr_-gneE14.122" edges="-gneE14.122">
        <interval begin="0" end="86400">
            <routeProbReroute id="-gneE14.122_-gneE12" probability="1.0"/>
            <routeProbReroute id="-gneE14.122_-gneE32" probability="1.0"/>
        </interval>
    </rerouter>
    <route id="gneE12_gneE13" edges="gneE12 gneE13 gneE13.107 gneE15 gneE17 gneE19 gneE20 gneE1 gneE2 gneE3 gneE6"/>
    <route id="gneE31_gneE13" edges="gneE31 gneE13 gneE13.107 gneE15 gneE17 gneE19 gneE20 gneE1 gneE2 gneE3 gneE6"/>
    <route id="-gneE12_D0C0" edges="-gneE12 D0C0 C0B0"/>
    <route id="C0D0_D0E0" edges="C0D0 D0E0"/>
    <route id="C0D0_gneE12" edges="C0D0 gneE12 gneE13 gneE13.107 gneE15 gneE17 gneE19 gneE20 gneE1 gneE2 gneE3 gneE6"/>
    <rerouter id="rr_C0D0" edges="C0D0">
        <interval begin="0" end="86400">
            <routeProbReroute id="C0D0_D0E0" probability="1.0"/>
            <routeProbReroute id="C0D0_gneE12" probability="1.0"/>
        </interval>
    </rerouter>
    <route id="E0D0_D0C0" edges="E0D0 D0C0 C0B0"/>
    <route id="-gneE16_-gneE14" edges="-gneE16 -gneE14"/>
    <route id="gneE13.107_gneE15" edges="gneE13.107 gneE15 gneE17 gneE19 gneE20 gneE1 gneE2 gneE3 gneE6"/>
    <route id="-gneE14_-gneE14.122" edges="-gneE14 -gneE14.122"/>
    <route id="-gneE14_-gneE39" edges="-gneE14 -gneE39"/>
    <rerouter id="rr_-gneE14" edges="-gneE14">
        <interval begin="0" end="86400">
            <routeProbReroute id="-gneE14_-gneE14.122" probability="1.0"/>
            <routeProbReroute id="-gneE14_-gneE39" probability="1.0"/>
        </interval>
    </rerouter>
    <route id="gneE13_gneE13.107" edges="gneE13 gneE13.107 gneE15 gneE17 gneE19 gneE20 gneE1 gneE2 gneE3 gneE6"/>
    <route id="gneE39_gneE13.107" edges="gneE39 gneE13.107 gneE15 gneE17 gneE19 gneE20 gneE1 gneE2 gneE3 gneE6"/>
    <route id="-gneE18_-gneE16" edges="-gneE18 -gneE16 -gneE14"/>
    <route id="gneE15_gneE17" edges="gneE15 gneE17 gneE19 gneE20 gneE1 gneE2 gneE3 gneE6"/>
    <route id="-gneE19_-gneE18" edges="-gneE19 -gneE18 -gneE16 -gneE14"/>
    <route id="gneE17_gneE19" edges="gneE17 gneE19 gneE20 gneE1 gneE2 gneE3 gneE6"/>
    <route id="-gneE20_-gneE19" edges="-gneE20 -gneE19 -gneE18 -gneE16 -gneE14"/>
    <route id="gneE19_gneE20" edges="gneE19 gneE20 gneE1 gneE2 gneE3 gneE6"/>
    <route id="-gneE3_-gneE2" edges="-gneE3 -gneE2 -gneE1"/>
    <route id="gneE2_gneE3" edges="gneE2 gneE3 gneE6"/>
    <route id="-gneE6.88_-gneE3" edges="-gneE6.88 -gneE3 -gneE2 -gneE1"/>
    <route id="gneE3_gneE6" edges="gneE3 gneE6"/>
    <route id="-gneE32_F0F1" edges="-gneE32 F0F1 F1E1 E1D1"/>
    <route id="E0F0_F0F1" edges="E0F0 F0F1 F1E1 E1D1"/>
    <route id="F1F0_F0E0" edges="F1F0 F0E0 E0D0 D0C0 C0B0"/>
    <route id="F1F0_gneE31" edges="F1F0 gneE31 gneE13 gneE13.107 gneE15 gneE17 gneE19 gneE20 gneE1 gneE2 gneE3 gneE6"/>
    <rerouter id="rr_F1F0" edges="F1F0">
        <interval begin="0" end="86400">
            <routeProbReroute id="F1F0_F0E0" probability="1.0"/>
            <routeProbReroute id="F1F0_gneE31" probability="1.0"/>
        </interval>
    </rerouter>
    <route id="-gneE33_-gneE34" edges="-gneE33 -gneE34 -gneE34.267 -gneE6 -gneE6.88 -gneE3 -gneE2 -gneE1"/>
    <route id="gneE32.34_gneE33" edges="gneE32.34 gneE33 -gneE33 -gneE34 -gneE34.267 -gneE6 -gneE6.88 -gneE3 -gneE2 -gneE1"/>
    <route id="-gneE34_-gneE34.267" edges="-gneE34 -gneE34.267 -gneE6 -gneE6.88 -gneE3 -gneE2 -gneE1"/>
    <route id="-gneE43_-gneE34.267" edges="-gneE43 -gneE34.267 -gneE6 -gneE6.88 -gneE3 -gneE2 -gneE1"/>
    <route id="gneE32_gneE32.34" edges="gneE32 gneE32.34 gneE33 -gneE33 -gneE34 -gneE34.267 -gneE6 -gneE6.88 -gneE3 -gneE2 -gneE1"/>
    <route id="gneE32_gneE43" edges="gneE32 gneE43 gneE41 gneE42 gneE39 gneE13.107 gneE15 gneE17 gneE19 gneE20 gneE1 gneE2 gneE3 gneE6"/>
    <rerouter id="rr_gneE32" edges="gneE32">
        <interval begin="0" end="86400">
            <routeProbReroute id="gneE32_gneE32.34" probability="1.0"/>
            <routeProbReroute id="gneE32_gneE43" probability="1.0"/>
        </interval>
    </rerouter>
    <route id="-gneE34.267_-gneE6" edges="-gneE34.267 -gneE6 -gneE6.88 -gneE3 -gneE2 -gneE1"/>
    <route id="-gneE7_-gneE6" edges="-gneE7 -gneE6 -gneE6.88 -gneE3 -gneE2 -gneE1"/>
    <route id="gneE6.73_gneE32" edges="gneE6.73 gneE32"/>
    <route id="gneE6.73_gneE7" edges="gneE6.73 gneE7 gneE8 gneE9 gneE10 C0B0"/>
    <rerouter id="rr_gneE6.73" edges="gneE6.73">
        <interval begin="0" end="86400">
            <routeProbReroute id="gneE6.73_gneE32" probability="1.0"/>
            <routeProbReroute id="gneE6.73_gneE7" probability="1.0"/>
        </interval>
    </rerouter>
    <route id="-gneE38.389_-gneE37" edges="-gneE38.389 -gneE37 -gneE6.88 -gneE3 -gneE2 -gneE1"/>
    <route id="-gneE40_-gneE37" edges="-gneE40 -gneE37 -gneE6.88 -gneE3 -gneE2 -gneE1"/>
    <route id="gneE36_gneE38" edges="gneE36 gneE38 gneE38.39 gneE38.99 gneE38.308"/>
    <route id="gneE36_gneE40" edges="gneE36 gneE40 gneE41 gneE42 gneE39 gneE13.107 gneE15 gneE17 gneE19 gneE20 gneE1 gneE2 gneE3 gneE6"/>
    <rerouter id="rr_gneE36" edges="gneE36">
        <interval begin="0" end="86400">
            <routeProbReroute id="gneE36_gneE38" probability="1.0"/>
            <routeProbReroute id="gneE36_gneE40" probability="1.0"/>
        </interval>
    </rerouter>
    <route id="-gneE37_-gneE6.88" edges="-gneE37 -gneE6.88 -gneE3 -gneE2 -gneE1"/>
    <route id="-gneE6_-gneE6.88" edges="-gneE6 -gneE6.88 -gneE3 -gneE2 -gneE1"/>
    <route id="gneE6_gneE36" edges="gneE6 gneE36"/>
    <route id="gneE6_gneE6.73" edges="gneE6 gneE6.73"/>
    <rerouter id="rr_gneE6" edges="gneE6">
        <interval begin="0" end="86400">
            <routeProbReroute id="gneE6_gneE36" probability="1.0"/>
            <routeProbReroute id="gneE6_gneE6.73" probability="1.0"/>
        </interval>
    </rerouter>
    <route id="-gneE39_-gneE38" edges="-gneE39 -gneE38 -gneE38.59 -gneE38.119 -gneE38.328"/>
    <route id="-gneE39_-gneE42" edges="-gneE39 -gneE42 -gneE41"/>
    <rerouter id="rr_-gneE39" edges="-gneE39">
        <interval begin="0" end="86400">
            <routeProbReroute id="-gneE39_-gneE38" probability="1.0"/>
            <routeProbReroute id="-gneE39_-gneE42" probability="1.0"/>
        </interval>
    </rerouter>
    <route id="gneE38.370_gneE39" edges="gneE38.370 gneE39 gneE13.107 gneE15 gneE17 gneE19 gneE20 gneE1 gneE2 gneE3 gneE6"/>
    <route id="gneE42_gneE39" edges="gneE42 gneE39 gneE13.107 gneE15 gneE17 gneE19 gneE20 gneE1 gneE2 gneE3 gneE6"/>
    <route id="-gneE38_-gneE38.59" edges="-gneE38 -gneE38.59 -gneE38.119 -gneE38.328"/>
    <route id="gneE38.308_-gneE38.59" edges="gneE38.308 -gneE38.59 -gneE38.119 -gneE38.328"/>
    <route id="gneE38.308_gneE38.370" edges="gneE38.308 gneE38.370 gneE39 gneE13.107 gneE15 gneE17 gneE19 gneE20 gneE1 gneE2 gneE3 gneE6"/>
    <rerouter id="rr_gneE38.308" edges="gneE38.308">
        <interval begin="0" end="86400">
            <routeProbReroute id="gneE38.308_-gneE38.59" probability="0.0"/>
            <routeProbReroute id="gneE38.308_gneE38.370" probability="1.0"/>
        </interval>
    </rerouter>
    <route id="-gneE38.59_-gneE38.119" edges="-gneE38.59 -gneE38.119 -gneE38.328"/>
    <route id="gneE38.99_gneE38.308" edges="gneE38.99 gneE38.308"/>
    <route id="-gneE38.119_-gneE38.328" edges="-gneE38.119 -gneE38.328"/>
    <route id="gneE38.39_gneE38.99" edges="gneE38.39 gneE38.99 gneE38.308"/>
    <route id="-gneE38.328_-gneE38.389" edges="-gneE38.328 -gneE38.389 -gneE37 -gneE6.88 -gneE3 -gneE2 -gneE1"/>
    <route id="-gneE38.328_gneE38.39" edges="-gneE38.328 gneE38.39 gneE38.99 gneE38.308"/>
    <rerouter id="rr_-gneE38.328" edges="-gneE38.328">
        <interval begin="0" end="86400">
            <routeProbReroute id="-gneE38.328_-gneE38.389" probability="1.0"/>
            <routeProbReroute id="-gneE38.328_gneE38.39" probability="0.0"/>
        </interval>
    </rerouter>
    <route id="gneE38_gneE38.39" edges="gneE38 gneE38.39 gneE38.99 gneE38.308"/>
    <route id="-gneE41_-gneE40" edges="-gneE41 -gneE40 -gneE37 -gneE6.88 -gneE3 -gneE2 -gneE1"/>
    <route id="-gneE41_-gneE43" edges="-gneE41 -gneE43 -gneE34.267 -gneE6 -gneE6.88 -gneE3 -gneE2 -gneE1"/>
    <rerouter id="rr_-gneE41" edges="-gneE41">
        <interval begin="0" end="86400">
            <routeProbReroute id="-gneE41_-gneE40" probability="1.0"/>
            <routeProbReroute id="-gneE41_-gneE43" probability="1.0"/>
        </interval>
    </rerouter>
    <route id="gneE40_gneE41" edges="gneE40 gneE41 gneE42 gneE39 gneE13.107 gneE15 gneE17 gneE19 gneE20 gneE1 gneE2 gneE3 gneE6"/>
    <route id="gneE43_gneE41" edges="gneE43 gneE41 gneE42 gneE39 gneE13.107 gneE15 gneE17 gneE19 gneE20 gneE1 gneE2 gneE3 gneE6"/>
    <route id="-gneE42_-gneE41" edges="-gneE42 -gneE41"/>
    <route id="gneE41_gneE42" edges="gneE41 gneE42 gneE39 gneE13.107 gneE15 gneE17 gneE19 gneE20 gneE1 gneE2 gneE3 gneE6"/>
    <route id="-gneE8_-gneE7" edges="-gneE8 -gneE7 -gneE6 -gneE6.88 -gneE3 -gneE2 -gneE1"/>
    <route id="gneE7_gneE8" edges="gneE7 gneE8 gneE9 gneE10 C0B0"/>
    <route id="-gneE9_-gneE8" edges="-gneE9 -gneE8 -gneE7 -gneE6 -gneE6.88 -gneE3 -gneE2 -gneE1"/>
    <route id="gneE8_gneE9" edges="gneE8 gneE9 gneE10 C0B0"/>
    <route id="A0B0_B0C0" edges="A0B0 B0C0"/>
    <route id="B1B0_B0C0" edges="B1B0 B0C0"/>
    <route id="C0B0_B0A0" edges="C0B0 B0A0"/>
    <route id="C0B0_B0B1" edges="C0B0 B0B1 B1C1 C1D1 D1E1"/>
    <rerouter id="rr_C0B0" edges="C0B0">
        <interval begin="0" end="86400">
            <routeProbReroute id="C0B0_B0A0" probability="1.0"/>
            <routeProbReroute id="C0B0_B0B1" probability="1.0"/>
        </interval>
    </rerouter>
    <route id="A1B1_B1C1" edges="A1B1 B1C1 C1D1 D1E1"/>
    <route id="B0B1_B1C1" edges="B0B1 B1C1 C1D1 D1E1"/>
    <route id="C1B1_B1A1" edges="C1B1 B1A1 A1A0 A0B0 B0C0"/>
    <route id="C1B1_B1B0" edges="C1B1 B1B0 B0C0"/>
    <rerouter id="rr_C1B1" edges="C1B1">
        <interval begin="0" end="86400">
            <routeProbReroute id="C1B1_B1A1" probability="1.0"/>
            <routeProbReroute id="C1B1_B1B0" probability="1.0"/>
        </interval>
    </rerouter>
    <route id="B1C1_C1D1" edges="B1C1 C1D1 D1E1"/>
    <route id="D1C1_C1B1" edges="D1C1 C1B1"/>
    <route id="D0E0_E0E1" edges="D0E0 E0E1 E1D1"/>
    <route id="D0E0_E0F0" edges="D0E0 E0F0 F0F1 F1E1 E1D1"/>
    <rerouter id="rr_D0E0" edges="D0E0">
        <interval begin="0" end="86400">
            <routeProbReroute id="D0E0_E0E1" probability="1.0"/>
            <routeProbReroute id="D0E0_E0F0" probability="1.0"/>
        </interval>
    </rerouter>
    <route id="E1E0_E0D0" edges="E1E0 E0D0 D0C0 C0B0"/>
    <route id="F0E0_E0D0" edges="F0E0 E0D0 D0C0 C0B0"/>
    <route id="D1E1_E1E0" edges="D1E1 E1E0 E0D0 D0C0 C0B0"/>
    <route id="D1E1_E1F1" edges="D1E1 E1F1 F1F0"/>
    <rerouter id="rr_D1E1" edges="D1E1">
        <interval begin="0" end="86400">
            <routeProbReroute id="D1E1_E1E0" probability="1.0"/>
            <routeProbReroute id="D1E1_E1F1" probability="1.0"/>
        </interval>
    </rerouter>
    <route id="E0E1_E1D1" edges="E0E1 E1D1"/>
    <route id="F1E1_E1D1" edges="F1E1 E1D1"/>
    <route id="E1F1_F1F0" edges="E1F1 F1F0"/>
    <route id="F0F1_F1E1" edges="F0F1 F1E1 E1D1"/>
</additional>
