<?xml version="1.0" encoding="UTF-8"?>

<!-- generated on Sun 24 Nov 2019 10:14:19 PM CET by Eclipse SUMO netedit Version v1_3_1+1013-4978d821a3
<configuration xmlns:xsi="http://www.w3.org/2001/XMLSchema-instance" xsi:noNamespaceSchemaLocation="http://sumo.dlr.de/xsd/netconvertConfiguration.xsd">

    <input>
        <sumo-net-file value="large.net.xml"/>
    </input>

    <output>
        <output-file value="large.net.xml"/>
    </output>

    <processing>
        <geometry.max-grade.fix value="false"/>
        <offset.disable-normalization value="true"/>
        <lefthand value="false"/>
    </processing>

    <junctions>
        <no-turnarounds value="true"/>
        <junctions.corner-detail value="5"/>
        <junctions.limit-turn-speed value="5.5"/>
        <rectangular-lane-cut value="false"/>
    </junctions>

    <pedestrian>
        <walkingareas value="false"/>
    </pedestrian>

    <formats>
        <opendrive.curve-resolution value="20"/>
    </formats>

    <visualisation>
        <registry-viewport value="true"/>
    </visualisation>

</configuration>
-->

<net version="1.3" junctionCornerDetail="5" limitTurnSpeed="5.50" xmlns:xsi="http://www.w3.org/2001/XMLSchema-instance" xsi:noNamespaceSchemaLocation="http://sumo.dlr.de/xsd/net_file.xsd">

    <location netOffset="0.00,0.00" convBoundary="-200.00,-150.00,649.70,200.00" origBoundary="0.00,0.00,500.00,100.00" projParameter="!"/>

    <type id="rail" allow="rail" oneway="1"/>

    <edge id=":A0_0" function="internal" bidi=":A0_3">
        <lane id=":A0_0_0" index="0" allow="rail" speed="13.89" length="10.46" shape="1.91,0.00 -1.04,0.30 -3.00,1.16 -4.84,2.46 -7.44,4.13"/>
    </edge>
    <edge id=":A0_1" function="internal" bidi=":A0_2">
        <lane id=":A0_1_0" index="0" allow="rail" speed="13.89" length="10.43" shape="1.91,0.00 -8.50,0.50"/>
    </edge>
    <edge id=":A0_2" function="internal" bidi=":A0_1">
        <lane id=":A0_2_0" index="0" allow="rail" speed="13.89" length="10.43" shape="-8.50,0.50 1.91,0.00"/>
    </edge>
    <edge id=":A0_3" function="internal" bidi=":A0_0">
        <lane id=":A0_3_0" index="0" allow="rail" speed="13.89" length="10.46" shape="-7.44,4.13 -4.84,2.46 -3.00,1.16 -1.04,0.30 1.91,0.00"/>
    </edge>
    <edge id=":A1_0" function="internal" bidi=":A1_3">
        <lane id=":A1_0_0" index="0" allow="rail" speed="13.89" length="9.94" shape="7.11,103.71 -1.67,99.07"/>
    </edge>
    <edge id=":A1_1" function="internal" bidi=":A1_2">
        <lane id=":A1_1_0" index="0" allow="rail" speed="13.89" length="9.96" shape="8.02,100.00 5.05,100.19 2.94,100.42 0.95,100.21 -1.67,99.07"/>
    </edge>
    <edge id=":A1_2" function="internal" bidi=":A1_1">
        <lane id=":A1_2_0" index="0" allow="rail" speed="13.89" length="9.96" shape="-1.67,99.07 0.95,100.21 2.94,100.42 5.05,100.19 8.02,100.00"/>
    </edge>
    <edge id=":A1_3" function="internal" bidi=":A1_0">
        <lane id=":A1_3_0" index="0" allow="rail" speed="13.89" length="9.94" shape="-1.67,99.07 7.11,103.71"/>
    </edge>
    <edge id=":B0_0" function="internal" bidi=":B0_3">
        <lane id=":B0_0_0" index="0" allow="rail" speed="13.89" length="9.61" shape="101.91,0.00 99.16,0.26 97.38,1.01 95.71,2.18 93.29,3.73"/>
    </edge>
    <edge id=":B0_1" function="internal" bidi=":B0_2">
        <lane id=":B0_1_0" index="0" allow="rail" speed="13.89" length="9.59" shape="101.91,0.00 92.33,0.00"/>
    </edge>
    <edge id=":B0_2" function="internal" bidi=":B0_1">
        <lane id=":B0_2_0" index="0" allow="rail" speed="13.89" length="9.59" shape="92.33,0.00 101.91,0.00"/>
    </edge>
    <edge id=":B0_3" function="internal" bidi=":B0_0">
        <lane id=":B0_3_0" index="0" allow="rail" speed="13.89" length="9.61" shape="93.29,3.73 95.71,2.18 97.38,1.01 99.16,0.26 101.91,0.00"/>
    </edge>
    <edge id=":B1_0" function="internal" bidi=":B1_3">
        <lane id=":B1_0_0" index="0" allow="rail" speed="13.89" length="9.59" shape="101.91,100.00 92.33,100.00"/>
    </edge>
    <edge id=":B1_1" function="internal" bidi=":B1_2">
        <lane id=":B1_1_0" index="0" allow="rail" speed="13.89" length="9.61" shape="101.91,100.00 99.16,99.74 97.38,98.99 95.71,97.82 93.29,96.27"/>
    </edge>
    <edge id=":B1_2" function="internal" bidi=":B1_1">
        <lane id=":B1_2_0" index="0" allow="rail" speed="13.89" length="9.61" shape="93.29,96.27 95.71,97.82 97.38,98.99 99.16,99.74 101.91,100.00"/>
    </edge>
    <edge id=":B1_3" function="internal" bidi=":B1_0">
        <lane id=":B1_3_0" index="0" allow="rail" speed="13.89" length="9.59" shape="92.33,100.00 101.91,100.00"/>
    </edge>
    <edge id=":C0_0" function="internal" bidi=":C0_3">
        <lane id=":C0_0_0" index="0" allow="rail" speed="13.89" length="9.59" shape="207.67,0.00 198.09,0.00"/>
    </edge>
    <edge id=":C0_1" function="internal" bidi=":C0_2">
        <lane id=":C0_1_0" index="0" allow="rail" speed="13.89" length="9.61" shape="206.71,-3.73 204.29,-2.18 202.62,-1.01 200.84,-0.26 198.09,0.00"/>
    </edge>
    <edge id=":C0_2" function="internal" bidi=":C0_1">
        <lane id=":C0_2_0" index="0" allow="rail" speed="13.89" length="9.61" shape="198.09,0.00 200.84,-0.26 202.62,-1.01 204.29,-2.18 206.71,-3.73"/>
    </edge>
    <edge id=":C0_3" function="internal" bidi=":C0_0">
        <lane id=":C0_3_0" index="0" allow="rail" speed="13.89" length="9.59" shape="198.09,0.00 207.67,0.00"/>
    </edge>
    <edge id=":C1_0" function="internal" bidi=":C1_1">
        <lane id=":C1_0_0" index="0" allow="rail" speed="13.89" length="0.10" shape="200.00,100.00 200.00,100.00"/>
    </edge>
    <edge id=":C1_1" function="internal" bidi=":C1_0">
        <lane id=":C1_1_0" index="0" allow="rail" speed="13.89" length="0.10" shape="200.00,100.00 200.00,100.00"/>
    </edge>
    <edge id=":D0_0" function="internal" bidi=":D0_3">
        <lane id=":D0_0_0" index="0" allow="rail" speed="13.89" length="7.53" shape="305.36,0.00 297.84,0.00"/>
    </edge>
    <edge id=":D0_1" function="internal" bidi=":D0_2">
        <lane id=":D0_1_0" index="0" allow="rail" speed="13.89" length="7.19" shape="303.79,-3.79 302.00,-2.13 300.41,-0.95 299.02,-0.24 297.84,0.00"/>
    </edge>
    <edge id=":D0_2" function="internal" bidi=":D0_1">
        <lane id=":D0_2_0" index="0" allow="rail" speed="13.89" length="7.19" shape="297.84,0.00 299.02,-0.24 300.41,-0.95 302.00,-2.13 303.79,-3.79"/>
    </edge>
    <edge id=":D0_3" function="internal" bidi=":D0_0">
        <lane id=":D0_3_0" index="0" allow="rail" speed="13.89" length="7.53" shape="297.84,0.00 305.36,0.00"/>
    </edge>
    <edge id=":D1_0" function="internal" bidi=":D1_3">
        <lane id=":D1_0_0" index="0" allow="rail" speed="13.89" length="7.19" shape="302.16,100.00 300.98,100.24 299.59,100.95 298.00,102.13 296.21,103.79"/>
    </edge>
    <edge id=":D1_1" function="internal" bidi=":D1_2">
        <lane id=":D1_1_0" index="0" allow="rail" speed="13.89" length="7.53" shape="302.16,100.00 294.64,100.00"/>
    </edge>
    <edge id=":D1_2" function="internal" bidi=":D1_1">
        <lane id=":D1_2_0" index="0" allow="rail" speed="13.89" length="7.53" shape="294.64,100.00 302.16,100.00"/>
    </edge>
    <edge id=":D1_3" function="internal" bidi=":D1_0">
        <lane id=":D1_3_0" index="0" allow="rail" speed="13.89" length="7.19" shape="296.21,103.79 298.00,102.13 299.59,100.95 300.98,100.24 302.16,100.00"/>
    </edge>
    <edge id=":E0_0" function="internal" bidi=":E0_3">
        <lane id=":E0_0_0" index="0" allow="rail" speed="13.89" length="9.61" shape="406.71,3.73 404.29,2.18 402.62,1.01 400.84,0.26 398.09,0.00"/>
    </edge>
    <edge id=":E0_1" function="internal" bidi=":E0_2">
        <lane id=":E0_1_0" index="0" allow="rail" speed="13.89" length="9.59" shape="407.67,0.00 398.09,0.00"/>
    </edge>
    <edge id=":E0_2" function="internal" bidi=":E0_1">
        <lane id=":E0_2_0" index="0" allow="rail" speed="13.89" length="9.59" shape="398.09,0.00 407.67,0.00"/>
    </edge>
    <edge id=":E0_3" function="internal" bidi=":E0_0">
        <lane id=":E0_3_0" index="0" allow="rail" speed="13.89" length="9.61" shape="398.09,0.00 400.84,0.26 402.62,1.01 404.29,2.18 406.71,3.73"/>
    </edge>
    <edge id=":E1_0" function="internal" bidi=":E1_3">
        <lane id=":E1_0_0" index="0" allow="rail" speed="13.89" length="9.59" shape="407.67,100.00 398.09,100.00"/>
    </edge>
    <edge id=":E1_1" function="internal" bidi=":E1_2">
        <lane id=":E1_1_0" index="0" allow="rail" speed="13.89" length="9.61" shape="406.71,96.27 404.29,97.82 402.62,98.99 400.84,99.74 398.09,100.00"/>
    </edge>
    <edge id=":E1_2" function="internal" bidi=":E1_1">
        <lane id=":E1_2_0" index="0" allow="rail" speed="13.89" length="9.61" shape="398.09,100.00 400.84,99.74 402.62,98.99 404.29,97.82 406.71,96.27"/>
    </edge>
    <edge id=":E1_3" function="internal" bidi=":E1_0">
        <lane id=":E1_3_0" index="0" allow="rail" speed="13.89" length="9.59" shape="398.09,100.00 407.67,100.00"/>
    </edge>
    <edge id=":F0_0" function="internal" bidi=":F0_3">
        <lane id=":F0_0_0" index="0" allow="rail" speed="13.89" length="11.87" shape="501.67,0.93 498.72,-0.24 496.10,-0.45 493.36,-0.20 490.05,0.00"/>
    </edge>
    <edge id=":F0_1" function="internal" bidi=":F0_2">
        <lane id=":F0_1_0" index="0" allow="rail" speed="13.89" length="11.86" shape="501.67,0.93 498.78,-0.55 496.31,-1.58 493.80,-2.49 490.74,-3.64"/>
    </edge>
    <edge id=":F0_2" function="internal" bidi=":F0_1">
        <lane id=":F0_2_0" index="0" allow="rail" speed="13.89" length="11.86" shape="490.74,-3.64 493.80,-2.49 496.31,-1.58 498.78,-0.55 501.67,0.93"/>
    </edge>
    <edge id=":F0_3" function="internal" bidi=":F0_0">
        <lane id=":F0_3_0" index="0" allow="rail" speed="13.89" length="11.87" shape="490.05,0.00 493.36,-0.20 496.10,-0.45 498.72,-0.24 501.67,0.93"/>
    </edge>
    <edge id=":F1_0" function="internal" bidi=":F1_1">
        <lane id=":F1_0_0" index="0" allow="rail" speed="13.89" length="0.82" shape="500.36,99.80 500.15,99.91 499.99,99.97 499.83,100.00 499.59,100.00"/>
    </edge>
    <edge id=":F1_1" function="internal" bidi=":F1_0">
        <lane id=":F1_1_0" index="0" allow="rail" speed="13.89" length="0.82" shape="499.59,100.00 499.83,100.00 499.99,99.97 500.15,99.91 500.36,99.80"/>
    </edge>
    <edge id=":gneJ1_0" function="internal" bidi=":gneJ1_3">
        <lane id=":gneJ1_0_0" index="0" allow="rail" speed="13.89" length="7.53" shape="205.36,200.00 197.84,200.00"/>
    </edge>
    <edge id=":gneJ1_1" function="internal" bidi=":gneJ1_2">
        <lane id=":gneJ1_1_0" index="0" allow="rail" speed="13.89" length="7.19" shape="203.79,196.21 202.00,197.87 200.41,199.05 199.02,199.76 197.84,200.00"/>
    </edge>
    <edge id=":gneJ1_2" function="internal" bidi=":gneJ1_1">
        <lane id=":gneJ1_2_0" index="0" allow="rail" speed="13.89" length="7.19" shape="197.84,200.00 199.02,199.76 200.41,199.05 202.00,197.87 203.79,196.21"/>
    </edge>
    <edge id=":gneJ1_3" function="internal" bidi=":gneJ1_0">
        <lane id=":gneJ1_3_0" index="0" allow="rail" speed="13.89" length="7.53" shape="197.84,200.00 205.36,200.00"/>
    </edge>
    <edge id=":gneJ10_0" function="internal" bidi=":gneJ10_1">
        <lane id=":gneJ10_0_0" index="0" allow="rail" speed="13.89" length="0.82" shape="200.36,-99.80 200.15,-99.91 199.99,-99.97 199.83,-100.00 199.59,-100.00"/>
    </edge>
    <edge id=":gneJ10_1" function="internal" bidi=":gneJ10_0">
        <lane id=":gneJ10_1_0" index="0" allow="rail" speed="13.89" length="0.82" shape="199.59,-100.00 199.83,-100.00 199.99,-99.97 200.15,-99.91 200.36,-99.80"/>
    </edge>
    <edge id=":gneJ12_0" function="internal" bidi=":gneJ12_3">
        <lane id=":gneJ12_0_0" index="0" allow="rail" speed="13.89" length="7.24" shape="401.61,-101.49 400.90,-100.50 400.39,-99.02 400.07,-97.05 399.95,-94.59"/>
    </edge>
    <edge id=":gneJ12_1" function="internal" bidi=":gneJ12_2">
        <lane id=":gneJ12_1_0" index="0" allow="rail" speed="13.89" length="7.60" shape="401.61,-101.49 396.17,-96.17"/>
    </edge>
    <edge id=":gneJ12_2" function="internal" bidi=":gneJ12_1">
        <lane id=":gneJ12_2_0" index="0" allow="rail" speed="13.89" length="7.60" shape="396.17,-96.17 401.61,-101.49"/>
    </edge>
    <edge id=":gneJ12_3" function="internal" bidi=":gneJ12_0">
        <lane id=":gneJ12_3_0" index="0" allow="rail" speed="13.89" length="7.24" shape="399.95,-94.59 400.07,-97.05 400.39,-99.02 400.90,-100.50 401.61,-101.49"/>
    </edge>
    <edge id=":gneJ14_0" function="internal" bidi=":gneJ14_1">
        <lane id=":gneJ14_0_0" index="0" allow="rail" speed="13.89" length="0.10" shape="600.00,-100.00 600.00,-100.00"/>
    </edge>
    <edge id=":gneJ14_1" function="internal" bidi=":gneJ14_0">
        <lane id=":gneJ14_1_0" index="0" allow="rail" speed="13.89" length="0.10" shape="600.00,-100.00 600.00,-100.00"/>
    </edge>
    <edge id=":gneJ16_0" function="internal" bidi=":gneJ16_1">
        <lane id=":gneJ16_0_0" index="0" allow="rail" speed="13.89" length="0.10" shape="600.00,100.00 600.00,100.00"/>
    </edge>
    <edge id=":gneJ16_1" function="internal" bidi=":gneJ16_0">
        <lane id=":gneJ16_1_0" index="0" allow="rail" speed="13.89" length="0.10" shape="600.00,100.00 600.00,100.00"/>
    </edge>
    <edge id=":gneJ18_0" function="internal" bidi=":gneJ18_1">
        <lane id=":gneJ18_0_0" index="0" allow="rail" speed="13.89" length="0.10" shape="400.00,200.00 400.00,200.00"/>
    </edge>
    <edge id=":gneJ18_1" function="internal" bidi=":gneJ18_0">
        <lane id=":gneJ18_1_0" index="0" allow="rail" speed="13.89" length="0.10" shape="400.00,200.00 400.00,200.00"/>
    </edge>
    <edge id=":gneJ19_0" function="internal" bidi=":gneJ19_1">
        <lane id=":gneJ19_0_0" index="0" allow="rail" speed="13.89" length="0.10" shape="300.00,200.00 300.00,200.00"/>
    </edge>
    <edge id=":gneJ19_1" function="internal" bidi=":gneJ19_0">
        <lane id=":gneJ19_1_0" index="0" allow="rail" speed="13.89" length="0.10" shape="300.00,200.00 300.00,200.00"/>
    </edge>
    <edge id=":gneJ2_0" function="internal" bidi=":gneJ2_1">
        <lane id=":gneJ2_0_0" index="0" allow="rail" speed="13.89" length="0.10" shape="-100.00,200.00 -100.00,200.00"/>
    </edge>
    <edge id=":gneJ2_1" function="internal" bidi=":gneJ2_0">
        <lane id=":gneJ2_1_0" index="0" allow="rail" speed="13.89" length="0.10" shape="-100.00,200.00 -100.00,200.00"/>
    </edge>
    <edge id=":gneJ21_0" function="internal" bidi=":gneJ21_1">
        <lane id=":gneJ21_0_0" index="0" allow="rail" speed="13.89" length="0.10" shape="310.00,-110.00 310.00,-110.00"/>
    </edge>
    <edge id=":gneJ21_1" function="internal" bidi=":gneJ21_0">
        <lane id=":gneJ21_1_0" index="0" allow="rail" speed="13.89" length="0.10" shape="310.00,-110.00 310.00,-110.00"/>
    </edge>
    <edge id=":gneJ22_0" function="internal" bidi=":gneJ22_3">
        <lane id=":gneJ22_0_0" index="0" allow="rail" speed="13.89" length="11.58" shape="-60.19,-110.00 -63.43,-110.14 -66.03,-110.31 -68.58,-110.20 -71.67,-109.44"/>
    </edge>
    <edge id=":gneJ22_1" function="internal" bidi=":gneJ22_2">
        <lane id=":gneJ22_1_0" index="0" allow="rail" speed="13.89" length="11.57" shape="-60.89,-113.64 -71.67,-109.44"/>
    </edge>
    <edge id=":gneJ22_2" function="internal" bidi=":gneJ22_1">
        <lane id=":gneJ22_2_0" index="0" allow="rail" speed="13.89" length="11.57" shape="-71.67,-109.44 -60.89,-113.64"/>
    </edge>
    <edge id=":gneJ22_3" function="internal" bidi=":gneJ22_0">
        <lane id=":gneJ22_3_0" index="0" allow="rail" speed="13.89" length="11.58" shape="-71.67,-109.44 -68.58,-110.20 -66.03,-110.31 -63.43,-110.14 -60.19,-110.00"/>
    </edge>
    <edge id=":gneJ23_0" function="internal">
        <lane id=":gneJ23_0_0" index="0" allow="rail" speed="0.01" length="0.10" shape="370.00,-110.00 370.00,-110.00"/>
    </edge>
    <edge id=":gneJ25_0" function="internal" bidi=":gneJ25_3">
        <lane id=":gneJ25_0_0" index="0" allow="rail" speed="13.89" length="20.03" shape="-166.90,-81.68 -170.53,-78.96 -174.60,-75.28 -178.38,-71.31 -181.15,-67.73"/>
    </edge>
    <edge id=":gneJ25_1" function="internal" bidi=":gneJ25_2">
        <lane id=":gneJ25_1_0" index="0" allow="rail" speed="13.89" length="20.00" shape="-169.77,-84.18 -181.15,-67.73"/>
    </edge>
    <edge id=":gneJ25_2" function="internal" bidi=":gneJ25_1">
        <lane id=":gneJ25_2_0" index="0" allow="rail" speed="13.89" length="20.00" shape="-181.15,-67.73 -169.77,-84.18"/>
    </edge>
    <edge id=":gneJ25_3" function="internal" bidi=":gneJ25_0">
        <lane id=":gneJ25_3_0" index="0" allow="rail" speed="13.89" length="20.03" shape="-181.15,-67.73 -178.38,-71.31 -174.60,-75.28 -170.53,-78.96 -166.90,-81.68"/>
    </edge>
    <edge id=":gneJ26_0" function="internal" bidi=":gneJ26_3">
        <lane id=":gneJ26_0_0" index="0" allow="rail" speed="13.89" length="21.37" shape="493.93,-149.70 489.21,-149.35 483.34,-148.45 477.51,-147.29 472.91,-146.10"/>
    </edge>
    <edge id=":gneJ26_1" function="internal" bidi=":gneJ26_2">
        <lane id=":gneJ26_1_0" index="0" allow="rail" speed="13.89" length="21.33" shape="493.93,-149.70 472.60,-149.75"/>
    </edge>
    <edge id=":gneJ26_2" function="internal" bidi=":gneJ26_1">
        <lane id=":gneJ26_2_0" index="0" allow="rail" speed="13.89" length="21.33" shape="472.60,-149.75 493.93,-149.70"/>
    </edge>
    <edge id=":gneJ26_3" function="internal" bidi=":gneJ26_0">
        <lane id=":gneJ26_3_0" index="0" allow="rail" speed="13.89" length="21.37" shape="472.91,-146.10 477.51,-147.29 483.34,-148.45 489.21,-149.35 493.93,-149.70"/>
    </edge>
    <edge id=":gneJ28_0" function="internal" bidi=":gneJ28_3">
        <lane id=":gneJ28_0_0" index="0" allow="rail" speed="13.89" length="10.32" shape="-52.60,-146.30 -55.25,-147.88 -57.12,-149.12 -59.07,-149.80 -61.99,-149.68"/>
    </edge>
    <edge id=":gneJ28_1" function="internal" bidi=":gneJ28_2">
        <lane id=":gneJ28_1_0" index="0" allow="rail" speed="13.89" length="10.29" shape="-51.72,-150.00 -54.74,-150.06 -56.88,-150.14 -59.00,-150.06 -61.99,-149.68"/>
    </edge>
    <edge id=":gneJ28_2" function="internal" bidi=":gneJ28_1">
        <lane id=":gneJ28_2_0" index="0" allow="rail" speed="13.89" length="10.29" shape="-61.99,-149.68 -59.00,-150.06 -56.88,-150.14 -54.74,-150.06 -51.72,-150.00"/>
    </edge>
    <edge id=":gneJ28_3" function="internal" bidi=":gneJ28_0">
        <lane id=":gneJ28_3_0" index="0" allow="rail" speed="13.89" length="10.32" shape="-61.99,-149.68 -59.07,-149.80 -57.12,-149.12 -55.25,-147.88 -52.60,-146.30"/>
    </edge>
    <edge id=":gneJ29_0" function="internal" bidi=":gneJ29_3">
        <lane id=":gneJ29_0_0" index="0" allow="rail" speed="13.89" length="13.13" shape="371.76,-150.00 368.36,-149.66 365.40,-148.80 362.48,-147.64 359.22,-146.41"/>
    </edge>
    <edge id=":gneJ29_1" function="internal" bidi=":gneJ29_2">
        <lane id=":gneJ29_1_0" index="0" allow="rail" speed="13.89" length="13.12" shape="371.76,-150.00 358.64,-150.00"/>
    </edge>
    <edge id=":gneJ29_2" function="internal" bidi=":gneJ29_1">
        <lane id=":gneJ29_2_0" index="0" allow="rail" speed="13.89" length="13.12" shape="358.64,-150.00 371.76,-150.00"/>
    </edge>
    <edge id=":gneJ29_3" function="internal" bidi=":gneJ29_0">
        <lane id=":gneJ29_3_0" index="0" allow="rail" speed="13.89" length="13.13" shape="359.22,-146.41 362.48,-147.64 365.40,-148.80 368.36,-149.66 371.76,-150.00"/>
    </edge>
    <edge id=":gneJ3_0" function="internal" bidi=":gneJ3_1">
        <lane id=":gneJ3_0_0" index="0" allow="rail" speed="13.89" length="0.10" shape="-200.00,100.00 -200.00,100.00"/>
    </edge>
    <edge id=":gneJ3_1" function="internal" bidi=":gneJ3_0">
        <lane id=":gneJ3_1_0" index="0" allow="rail" speed="13.89" length="0.10" shape="-200.00,100.00 -200.00,100.00"/>
    </edge>
    <edge id=":gneJ30_0" function="internal" bidi=":gneJ30_3">
        <lane id=":gneJ30_0_0" index="0" allow="rail" speed="13.89" length="6.93" shape="-18.12,-130.00 -20.15,-129.88 -21.50,-129.54 -22.81,-128.95 -24.70,-128.12"/>
    </edge>
    <edge id=":gneJ30_1" function="internal" bidi=":gneJ30_2">
        <lane id=":gneJ30_1_0" index="0" allow="rail" speed="13.89" length="6.92" shape="-18.12,-130.00 -20.13,-130.14 -21.46,-130.56 -22.72,-131.27 -24.53,-132.26"/>
    </edge>
    <edge id=":gneJ30_2" function="internal" bidi=":gneJ30_1">
        <lane id=":gneJ30_2_0" index="0" allow="rail" speed="13.89" length="6.92" shape="-24.53,-132.26 -22.72,-131.27 -21.46,-130.56 -20.13,-130.14 -18.12,-130.00"/>
    </edge>
    <edge id=":gneJ30_3" function="internal" bidi=":gneJ30_0">
        <lane id=":gneJ30_3_0" index="0" allow="rail" speed="13.89" length="6.93" shape="-24.70,-128.12 -22.81,-128.95 -21.50,-129.54 -20.15,-129.88 -18.12,-130.00"/>
    </edge>
    <edge id=":gneJ31_0" function="internal" bidi=":gneJ31_1">
        <lane id=":gneJ31_0_0" index="0" allow="rail" speed="13.89" length="0.52" shape="310.25,-130.08 310.10,-130.04 310.00,-130.01 309.89,-130.00 309.74,-130.00"/>
    </edge>
    <edge id=":gneJ31_1" function="internal" bidi=":gneJ31_0">
        <lane id=":gneJ31_1_0" index="0" allow="rail" speed="13.89" length="0.52" shape="309.74,-130.00 309.89,-130.00 310.00,-130.01 310.10,-130.04 310.25,-130.08"/>
    </edge>
    <edge id=":gneJ32_0" function="internal" bidi=":gneJ32_1">
        <lane id=":gneJ32_0_0" index="0" allow="rail" speed="13.89" length="0.10" shape="310.23,-150.00 310.23,-150.00"/>
    </edge>
    <edge id=":gneJ32_1" function="internal" bidi=":gneJ32_0">
        <lane id=":gneJ32_1_0" index="0" allow="rail" speed="13.89" length="0.10" shape="310.23,-150.00 310.23,-150.00"/>
    </edge>
    <edge id=":gneJ32_2" function="internal">
        <lane id=":gneJ32_2_0" index="0" allow="rail" speed="13.89" length="0.10" shape="310.23,-150.00 310.23,-150.00"/>
    </edge>
    <edge id=":gneJ33_0" function="internal" bidi=":gneJ33_2">
        <lane id=":gneJ33_0_0" index="0" allow="rail" speed="13.89" length="0.10" shape="-20.18,-150.00 -20.18,-150.00"/>
    </edge>
    <edge id=":gneJ33_1" function="internal">
        <lane id=":gneJ33_1_0" index="0" allow="rail" speed="13.89" length="0.10" shape="-20.18,-150.00 -20.18,-150.00"/>
    </edge>
    <edge id=":gneJ33_2" function="internal" bidi=":gneJ33_0">
        <lane id=":gneJ33_2_0" index="0" allow="rail" speed="13.89" length="0.10" shape="-20.18,-150.00 -20.18,-150.00"/>
    </edge>
    <edge id=":gneJ34_0" function="internal" bidi=":gneJ34_1">
        <lane id=":gneJ34_0_0" index="0" allow="rail" speed="13.89" length="0.10" shape="40.38,-150.00 40.38,-150.00"/>
    </edge>
    <edge id=":gneJ34_1" function="internal" bidi=":gneJ34_0">
        <lane id=":gneJ34_1_0" index="0" allow="rail" speed="13.89" length="0.10" shape="40.38,-150.00 40.38,-150.00"/>
    </edge>
    <edge id=":gneJ35_0" function="internal" bidi=":gneJ35_1">
        <lane id=":gneJ35_0_0" index="0" allow="rail" speed="13.89" length="0.10" shape="249.89,-150.00 249.89,-150.00"/>
    </edge>
    <edge id=":gneJ35_1" function="internal" bidi=":gneJ35_0">
        <lane id=":gneJ35_1_0" index="0" allow="rail" speed="13.89" length="0.10" shape="249.89,-150.00 249.89,-150.00"/>
    </edge>
    <edge id=":gneJ4_0" function="internal" bidi=":gneJ4_1">
        <lane id=":gneJ4_0_0" index="0" allow="rail" speed="13.89" length="0.10" shape="-200.00,0.00 -200.00,0.00"/>
    </edge>
    <edge id=":gneJ4_1" function="internal" bidi=":gneJ4_0">
        <lane id=":gneJ4_1_0" index="0" allow="rail" speed="13.89" length="0.10" shape="-200.00,0.00 -200.00,0.00"/>
    </edge>
    <edge id=":gneJ7_0" function="internal" bidi=":gneJ7_3">
        <lane id=":gneJ7_0_0" index="0" allow="rail" speed="13.89" length="13.07" shape="-88.64,-100.00 -101.71,-99.90"/>
    </edge>
    <edge id=":gneJ7_1" function="internal" bidi=":gneJ7_2">
        <lane id=":gneJ7_1_0" index="0" allow="rail" speed="13.89" length="13.08" shape="-89.22,-103.59 -92.47,-102.39 -95.37,-101.26 -98.32,-100.38 -101.71,-99.90"/>
    </edge>
    <edge id=":gneJ7_2" function="internal" bidi=":gneJ7_1">
        <lane id=":gneJ7_2_0" index="0" allow="rail" speed="13.89" length="13.08" shape="-101.71,-99.90 -98.32,-100.38 -95.37,-101.26 -92.47,-102.39 -89.22,-103.59"/>
    </edge>
    <edge id=":gneJ7_3" function="internal" bidi=":gneJ7_0">
        <lane id=":gneJ7_3_0" index="0" allow="rail" speed="13.89" length="13.07" shape="-101.71,-99.90 -88.64,-100.00"/>
    </edge>
    <edge id=":gneJ8_0" function="internal" bidi=":gneJ8_1">
        <lane id=":gneJ8_0_0" index="0" allow="rail" speed="13.89" length="0.10" shape="0.00,-100.00 0.00,-100.00"/>
    </edge>
    <edge id=":gneJ8_1" function="internal" bidi=":gneJ8_0">
        <lane id=":gneJ8_1_0" index="0" allow="rail" speed="13.89" length="0.10" shape="0.00,-100.00 0.00,-100.00"/>
    </edge>
    <edge id=":gneJ9_0" function="internal" bidi=":gneJ9_1">
        <lane id=":gneJ9_0_0" index="0" allow="rail" speed="13.89" length="0.10" shape="100.00,-100.00 100.00,-100.00"/>
    </edge>
    <edge id=":gneJ9_1" function="internal" bidi=":gneJ9_0">
        <lane id=":gneJ9_1_0" index="0" allow="rail" speed="13.89" length="0.10" shape="100.00,-100.00 100.00,-100.00"/>
    </edge>

    <edge id="-A1A0" from="A0" to="A1" priority="-1" type="rail" spreadType="center" shape="0.00,0.00 -18.00,10.00 -32.00,20.00 -42.00,30.00 -48.00,40.00 -50.00,50.00 -48.00,60.00 -42.00,70.00 -32.00,80.00 -18.00,90.00 0.00,100.00" bidi="A1A0">
        <lane id="-A1A0_0" index="0" allow="rail" speed="13.89" length="137.17" shape="-7.44,4.13 -18.00,10.00 -32.00,20.00 -42.00,30.00 -48.00,40.00 -50.00,50.00 -48.00,60.00 -42.00,70.00 -32.00,80.00 -18.00,90.00 -1.67,99.07"/>
    </edge>
    <edge id="-gneE0" from="gneJ1" to="D1" priority="-1" type="rail" spreadType="center" bidi="gneE0">
        <lane id="-gneE0_0" index="0" allow="rail" speed="13.89" length="130.70" shape="203.79,196.21 296.21,103.79"/>
    </edge>
    <edge id="-gneE1" from="gneJ2" to="gneJ1" priority="-1" type="rail" spreadType="center" bidi="gneE1">
        <lane id="-gneE1_0" index="0" allow="rail" speed="13.89" length="297.84" shape="-100.00,200.00 197.84,200.00"/>
    </edge>
    <edge id="-gneE10" from="C0" to="gneJ10" priority="-1" type="rail" spreadType="center" shape="200.00,0.00 218.00,-10.00 232.00,-20.00 242.00,-30.00 248.00,-40.00 250.00,-50.00 248.00,-60.00 242.00,-70.00 232.00,-80.00 218.00,-90.00 200.00,-100.00" bidi="gneE10">
        <lane id="-gneE10_0" index="0" allow="rail" speed="13.89" length="139.51" shape="206.71,-3.73 218.00,-10.00 232.00,-20.00 242.00,-30.00 248.00,-40.00 250.00,-50.00 248.00,-60.00 242.00,-70.00 232.00,-80.00 218.00,-90.00 200.36,-99.80"/>
    </edge>
    <edge id="-gneE12" from="gneJ12" to="D0" priority="-1" type="rail" spreadType="center" bidi="gneE12">
        <lane id="-gneE12_0" index="0" allow="rail" speed="13.89" length="130.64" shape="396.17,-96.17 303.79,-3.79"/>
    </edge>
    <edge id="-gneE14" from="gneJ14" to="gneJ26" priority="-1" type="rail" spreadType="center" shape="600.00,-100.00 584.62,-114.20 569.23,-126.04 553.85,-135.50 538.46,-142.60 523.08,-147.34 507.69,-149.70 492.31,-149.70" bidi="gneE13.107">
        <lane id="-gneE14_0" index="0" allow="rail" speed="13.89" length="120.78" shape="600.00,-100.00 584.62,-114.20 569.23,-126.04 553.85,-135.50 538.46,-142.60 523.08,-147.34 507.69,-149.70 493.93,-149.70"/>
    </edge>
    <edge id="-gneE14.122" from="gneJ26" to="gneJ12" priority="-1" type="rail" spreadType="center" shape="492.31,-149.70 476.92,-147.34 461.54,-142.60 446.15,-135.50 430.77,-126.04 415.38,-114.20 400.00,-100.00" bidi="gneE13">
        <lane id="-gneE14.122_0" index="0" allow="rail" speed="13.89" length="85.06" shape="472.91,-146.10 461.54,-142.60 446.15,-135.50 430.77,-126.04 415.38,-114.20 401.61,-101.49"/>
    </edge>
    <edge id="-gneE16" from="gneJ16" to="gneJ14" priority="-1" type="rail" spreadType="center" shape="600.00,100.00 614.20,84.62 626.04,69.23 635.50,53.85 642.60,38.46 647.34,23.08 649.70,7.69 649.70,-7.69 647.34,-23.08 642.60,-38.46 635.50,-53.85 626.04,-69.23 614.20,-84.62 600.00,-100.00" bidi="gneE15">
        <lane id="-gneE16_0" index="0" allow="rail" speed="13.89" length="229.42" shape="600.00,100.00 614.20,84.62 626.04,69.23 635.50,53.85 642.60,38.46 647.34,23.08 649.70,7.69 649.70,-7.69 647.34,-23.08 642.60,-38.46 635.50,-53.85 626.04,-69.23 614.20,-84.62 600.00,-100.00"/>
    </edge>
    <edge id="-gneE18" from="gneJ18" to="gneJ16" priority="-1" type="rail" spreadType="center" shape="400.00,200.00 418.18,199.17 436.36,196.69 454.55,192.56 472.73,186.78 490.91,179.34 509.09,170.25 527.27,159.50 545.45,147.11 563.64,133.06 581.82,117.36 600.00,100.00" bidi="gneE17">
        <lane id="-gneE18_0" index="0" allow="rail" speed="13.89" length="229.51" shape="400.00,200.00 418.18,199.17 436.36,196.69 454.55,192.56 472.73,186.78 490.91,179.34 509.09,170.25 527.27,159.50 545.45,147.11 563.64,133.06 581.82,117.36 600.00,100.00"/>
    </edge>
    <edge id="-gneE19" from="gneJ19" to="gneJ18" priority="-1" type="rail" spreadType="center" bidi="gneE19">
        <lane id="-gneE19_0" index="0" allow="rail" speed="13.89" length="100.00" shape="300.00,200.00 400.00,200.00"/>
    </edge>
    <edge id="-gneE2" from="gneJ3" to="gneJ2" priority="-1" type="rail" spreadType="center" shape="-200.00,100.00 -198.77,120.99 -195.06,139.51 -188.89,155.56 -180.25,169.14 -169.14,180.25 -155.56,188.89 -139.51,195.06 -120.99,198.77 -100.00,200.00" bidi="gneE2">
        <lane id="-gneE2_0" index="0" allow="rail" speed="13.89" length="162.12" shape="-200.00,100.00 -198.77,120.99 -195.06,139.51 -188.89,155.56 -180.25,169.14 -169.14,180.25 -155.56,188.89 -139.51,195.06 -120.99,198.77 -100.00,200.00"/>
    </edge>
    <edge id="-gneE20" from="gneJ1" to="gneJ19" priority="-1" type="rail" spreadType="center" bidi="gneE20">