<?xml version="1.0" encoding="UTF-8"?>

<!-- generated on Thu Mar 26 16:23:52 2015 by SUMO netconvert Version dev-SVN-r18156I
This data file and the accompanying materials
are made available under the terms of the Eclipse Public License v2.0
which accompanies this distribution, and is available at
http://www.eclipse.org/legal/epl-v20.html
SPDX-License-Identifier: EPL-2.0
<configuration xmlns:xsi="http://www.w3.org/2001/XMLSchema-instance" xsi:noNamespaceSchemaLocation="http://sumo.dlr.de/xsd/netconvertConfiguration.xsd">

    <input>
        <node-files value="./tools/detector/flowrouter/bell_pfe/../../../../networkInputs/bell_pfe/bell_pfe_koeln.nod.xml"/>
        <edge-files value="./tools/detector/flowrouter/bell_pfe/../../../../networkInputs/bell_pfe/bell_pfe_koeln.edg.xml"/>
        <connection-files value="./tools/detector/flowrouter/bell_pfe/../../../../networkInputs/bell_pfe/bell_pfe_koeln.con.xml"/>
    </input>

    <output>
        <output-file value="./tools/detector/flowrouter/bell_pfe/input_net.net.xml"/>
    </output>

    <processing>
        <no-internal-links value="true"/>
        <no-turnarounds value="true"/>
    </processing>

    <report>
        <verbose value="true"/>
    </report>

</configuration>
-->

<net version="0.13" xmlns:xsi="http://www.w3.org/2001/XMLSchema-instance" xsi:noNamespaceSchemaLocation="http://sumo.dlr.de/xsd/net_file.xsd">

    <location netOffset="186.66,392.12" convBoundary="0.00,0.00,329.84,644.50" origBoundary="-10000000000.00,-10000000000.00,10000000000.00,10000000000.00" projParameter="!"/>

    <edge id="1" from="gneJ53" to="103" priority="1">
        <lane id="1_0" index="0" speed="13.89" length="47.84" shape="158.04,48.32 118.28,46.51"/>
    </edge>
    <edge id="10" from="gneJ40" to="106" priority="1">
        <lane id="10_0" index="0" speed="13.89" length="93.70" shape="23.87,197.75 109.48,196.64"/>
    </edge>
    <edge id="11_47" from="109" to="106" priority="1">
        <lane id="11_47_0" index="0" speed="13.89" length="74.06" shape="112.93,270.76 112.66,206.21"/>
        <lane id="11_47_1" index="1" speed="13.89" length="74.06" shape="116.23,270.75 115.96,206.20"/>
    </edge>
    <edge id="12" from="106" to="109" priority="1">
        <lane id="12_0" index="0" speed="13.89" length="74.06" shape="119.26,206.18 119.53,270.73"/>
    </edge>
    <edge id="14_58" from="106" to="107" priority="1">
        <lane id="14_58_0" index="0" speed="13.89" length="157.22" shape="122.16,193.15 266.45,190.73"/>
        <lane id="14_58_1" index="1" speed="13.89" length="157.22" shape="122.22,196.45 266.51,194.03"/>
    </edge>
    <edge id="15" from="109" to="191" priority="1">
        <lane id="15_0" index="0" speed="13.89" length="74.90" shape="119.54,273.74 119.75,335.58"/>
    </edge>
    <edge id="16" from="191" to="109" priority="1">
        <lane id="16_0" index="0" speed="13.89" length="74.90" shape="116.45,335.59 116.25,273.75"/>
    </edge>
    <edge id="17" from="gneJ55" to="10" priority="1">
        <lane id="17_0" index="0" speed="13.89" length="40.54" shape="33.46,292.91 67.91,311.90"/>
    </edge>
    <edge id="18" from="191" to="gneJ38" priority="1">
        <lane id="18_0" index="0" speed="13.89" length="118.14" shape="106.77,348.74 -0.01,348.27"/>
    </edge>
    <edge id="19_48" from="110" to="191" priority="1">
        <lane id="19_48_0" index="0" speed="13.89" length="117.43" shape="113.74,456.20 113.23,355.33"/>
        <lane id="19_48_1" index="1" speed="13.89" length="117.43" shape="117.04,456.18 116.53,355.32"/>
    </edge>
    <edge id="20" from="191" to="110" priority="1">
        <lane id="20_0" index="0" speed="13.89" length="117.43" shape="119.83,355.30 120.34,456.17"/>
    </edge>
    <edge id="21_49" from="195" to="191" priority="1" shape="273.81,271.77 274.78,351.87 118.14,347.14">
        <lane id="21_49_0" index="0" speed="13.89" length="236.82" shape="278.86,279.65 279.79,356.97 122.97,352.24"/>
        <lane id="21_49_1" index="1" speed="13.89" length="236.82" shape="275.56,279.69 276.45,353.57 123.07,348.94"/>
    </edge>
    <edge id="22_64" from="191" to="195" priority="1" shape="118.14,347.14 274.78,351.87 273.81,271.77">
        <lane id="22_64_0" index="0" speed="13.89" length="236.82" shape="123.27,342.34 269.77,346.77 268.96,279.77"/>
        <lane id="22_64_1" index="1" speed="13.89" length="236.82" shape="123.17,345.64 273.11,350.17 272.26,279.73"/>
    </edge>
    <edge id="23_54" from="gneJ37" to="110" priority="1">
        <lane id="23_54_0" index="0" speed="13.89" length="66.63" shape="52.40,456.54 110.57,459.24"/>
        <lane id="23_54_1" index="1" speed="13.89" length="66.63" shape="52.25,459.83 110.42,462.53"/>
    </edge>
    <edge id="24" from="110" to="gneJ37" priority="1">
        <lane id="24_0" index="0" speed="13.89" length="66.63" shape="110.27,465.83 52.09,463.13"/>
    </edge>
    <edge id="25_56" from="110" to="111" priority="1">
        <lane id="25_56_0" index="0" speed="13.89" length="124.43" shape="123.66,469.07 123.13,580.77"/>
        <lane id="25_56_1" index="1" speed="13.89" length="124.43" shape="120.36,469.06 119.83,580.76"/>
    </edge>
    <edge id="26_55" from="111" to="110" priority="1">
        <lane id="26_55_0" index="0" speed="13.89" length="124.43" shape="113.23,580.73 113.76,469.03"/>
        <lane id="26_55_1" index="1" speed="13.89" length="124.43" shape="116.53,580.74 117.06,469.04"/>
    </edge>
    <edge id="27" from="111" to="gneJ36" priority="1">
        <lane id="27_0" index="0" speed="13.89" length="68.57" shape="109.84,590.36 49.55,588.26"/>
    </edge>
    <edge id="28_57" from="gneJ36" to="111" priority="1">
        <lane id="28_57_0" index="0" speed="13.89" length="68.57" shape="49.78,581.66 110.07,583.77"/>
        <lane id="28_57_1" index="1" speed="13.89" length="68.57" shape="49.67,584.96 109.95,587.06"/>
    </edge>
    <edge id="29" from="gneJ28" to="111" priority="1">
        <lane id="29_0" index="0" speed="13.89" length="55.51" shape="117.66,644.53 116.59,593.61"/>
    </edge>
    <edge id="3" from="103" to="gneJ52" priority="1">
        <lane id="3_0" index="0" speed="13.89" length="44.54" shape="108.88,39.67 110.61,-0.07"/>
    </edge>
    <edge id="30" from="111" to="gneJ28" priority="1">
        <lane id="30_0" index="0" speed="13.89" length="55.51" shape="119.89,593.54 120.96,644.47"/>
    </edge>
    <edge id="31_59" from="195" to="107" priority="1">
        <lane id="31_59_0" index="0" speed="13.89" length="76.24" shape="268.96,263.95 269.69,206.12"/>
        <lane id="31_59_1" index="1" speed="13.89" length="76.24" shape="272.26,263.99 272.99,206.16"/>
    </edge>
    <edge id="32_63" from="107" to="195" priority="1">
        <lane id="32_63_0" index="0" speed="13.89" length="76.24" shape="279.59,206.25 278.86,264.08"/>
        <lane id="32_63_1" index="1" speed="13.89" length="76.24" shape="276.29,206.20 275.56,264.03"/>
    </edge>
    <edge id="33_60_61" from="gneJ49" to="107" priority="1">
        <lane id="33_60_61_0" index="0" speed="13.89" length="52.06" shape="327.42,198.28 283.96,202.87"/>
        <lane id="33_60_61_1" index="1" speed="13.89" length="52.06" shape="327.07,195.00 283.61,199.59"/>
        <lane id="33_60_61_2" index="2" speed="13.89" length="52.06" shape="326.72,191.72 283.27,196.30"/>
    </edge>
    <edge id="34_66" from="gneJ47" to="195" priority="1">
        <lane id="34_66_0" index="0" speed="13.89" length="51.52" shape="222.16,268.52 265.53,267.09"/>
        <lane id="34_66_1" index="1" speed="13.89" length="51.52" shape="222.27,271.82 265.64,270.39"/>
    </edge>
    <edge id="35_65" from="gneJ48" to="195" priority="1">
        <lane id="35_65_0" index="0" speed="13.89" length="56.05" shape="329.98,275.13 282.14,276.49"/>
        <lane id="35_65_1" index="1" speed="13.89" length="56.05" shape="329.89,271.83 282.04,273.19"/>
    </edge>
    <edge id="36_62" from="gneJ50" to="107" priority="1">
        <lane id="36_62_0" index="0" speed="13.89" length="50.45" shape="278.84,145.01 279.59,187.40"/>
        <lane id="36_62_1" index="1" speed="13.89" length="50.45" shape="275.54,145.07 276.29,187.46"/>
    </edge>
    <edge id="37" from="107" to="gneJ50" priority="1">
        <lane id="37_0" index="0" speed="13.89" length="50.45" shape="272.99,187.52 272.24,145.13"/>
    </edge>
    <edge id="38" from="104" to="gneJ51" priority="1">
        <lane id="38_0" index="0" speed="13.89" length="43.67" shape="115.87,114.61 154.35,116.01"/>
    </edge>
    <edge id="39" from="107" to="gneJ49" priority="1">
        <lane id="39_0" index="0" speed="13.89" length="52.06" shape="282.92,193.02 326.38,188.44"/>
    </edge>
    <edge id="4" from="gneJ54" to="103" priority="1">
        <lane id="4_0" index="0" speed="13.89" length="57.08" shape="53.39,40.10 105.64,42.62"/>
    </edge>
    <edge id="40" from="195" to="gneJ47" priority="1">
        <lane id="40_0" index="0" speed="13.89" length="51.52" shape="265.75,273.69 222.37,275.12"/>
    </edge>
    <edge id="41" from="195" to="gneJ48" priority="1">
        <lane id="41_0" index="0" speed="13.89" length="56.05" shape="281.95,269.89 329.79,268.53"/>
    </edge>
    <edge id="42" from="103" to="gneJ53" priority="1">
        <lane id="42_0" index="0" speed="13.89" length="47.84" shape="118.43,43.22 158.18,45.02"/>
    </edge>
    <edge id="43" from="103" to="gneJ54" priority="1">
        <lane id="43_0" index="0" speed="13.89" length="57.08" shape="105.48,45.92 53.23,43.40"/>
    </edge>
    <edge id="44" from="106" to="gneJ40" priority="1">
        <lane id="44_0" index="0" speed="13.89" length="93.70" shape="109.52,199.94 23.91,201.05"/>
    </edge>
    <edge id="45_2" from="gneJ52" to="103" priority="1">
        <lane id="45_2_0" index="0" speed="13.89" length="44.54" shape="117.21,0.22 115.47,39.96"/>
        <lane id="45_2_1" index="1" speed="13.89" length="44.54" shape="113.91,0.07 112.18,39.81"/>
    </edge>
    <edge id="46_13" from="107" to="106" priority="1">
        <lane id="46_13_0" index="0" speed="13.89" length="157.22" shape="266.62,200.63 122.33,203.05"/>
        <lane id="46_13_1" index="1" speed="13.89" length="157.22" shape="266.56,197.33 122.27,199.75"/>
    </edge>
    <edge id="5" from="104" to="103" priority="1">
        <lane id="5_0" index="0" speed="13.89" length="71.57" shape="108.98,111.46 108.69,49.42"/>
    </edge>
    <edge id="51_50" from="gneJ38" to="191" priority="1">
        <lane id="51_50_0" index="0" speed="13.89" length="118.14" shape="0.02,341.67 106.80,342.14"/>
        <lane id="51_50_1" index="1" speed="13.89" length="118.14" shape="0.01,344.97 106.79,345.44"/>
    </edge>
    <edge id="53_52" from="10" to="191" priority="1">
        <lane id="53_52_0" index="0" speed="13.89" length="60.01" shape="71.95,310.50 109.77,335.64"/>
        <lane id="53_52_1" index="1" speed="13.89" length="60.01" shape="70.12,313.24 107.95,338.38"/>
    </edge>
    <edge id="6" from="103" to="104" priority="1">
        <lane id="6_0" index="0" speed="13.89" length="71.57" shape="111.99,49.41 112.28,111.44"/>
    </edge>
    <edge id="7" from="gneJ51" to="104" priority="1">
        <lane id="7_0" index="0" speed="13.89" length="43.67" shape="154.23,119.31 115.75,117.91"/>
    </edge>
    <edge id="8" from="104" to="106" priority="1">
        <lane id="8_0" index="0" speed="13.89" length="82.40" shape="112.73,121.08 118.56,190.22"/>
    </edge>
    <edge id="9" from="106" to="104" priority="1">
        <lane id="9_0" index="0" speed="13.89" length="82.40" shape="115.28,190.50 109.44,121.36"/>
    </edge>

    <junction id="10" type="priority" x="68.16" y="313.92" incLanes="17_0" intLanes="" shape="69.24,314.58 72.84,309.16 68.68,310.50 67.14,313.30">
        <request index="0" response="00" foes="00"/>
        <request index="1" response="00" foes="00"/>
    </junction>
    <junction id="103" type="priority" x="110.32" y="44.50" incLanes="5_0 1_0 45_2_0 45_2_1 4_0" intLanes="" shape="107.09,49.43 113.59,49.40 118.21,48.11 118.50,41.62 117.07,40.02 107.28,39.60 105.72,41.02 105.40,47.52">
        <request index="0" response="0000000000" foes="1111001100"/>
        <request index="1" response="0000100000" foes="1000100000"/>
        <request index="2" response="0001100001" foes="1001100001"/>
        <request index="3" response="0111100001" foes="0111100001"/>
        <request index="4" response="0000000000" foes="0100000000"/>
        <request index="5" response="0000000000" foes="1100001110"/>
        <request index="6" response="0000000001" foes="1100001101"/>
        <request index="7" response="0000000001" foes="0000001001"/>
        <request index="8" response="0001110001" foes="0001111001"/>
        <request index="9" response="0001100111" foes="0001100111"/>
    </junction>
    <junction id="104" type="priority" x="110.65" y="116.07" incLanes="9_0 7_0 6_0" intLanes="" shape="107.85,121.49 114.32,120.95 115.70,119.51 115.93,113.01 113.88,111.44 107.38,111.47">
        <request index="0" response="00000" foes="00100"/>
        <request index="1" response="10000" foes="10000"/>
        <request index="2" response="10001" foes="10001"/>
        <request index="3" response="00000" foes="00000"/>
        <request index="4" response="00000" foes="00110"/>
    </junction>
    <junction id="106" type="priority" x="117.58" y="198.18" incLanes="11_47_0 11_47_1 46_13_0 46_13_1 8_0 10_0" intLanes="" shape="111.06,206.22 120.86,206.18 122.36,204.65 122.14,191.55 120.16,190.09 113.68,190.64 109.46,195.04 109.54,201.53">
        <request index="0" response="00000000" foes="10011000"/>
        <request index="1" response="00000000" foes="01011000"/>
        <request index="2" response="00000000" foes="01000000"/>
        <request index="3" response="00000011" foes="01000011"/>
        <request index="4" response="00000011" foes="11000011"/>
        <request index="5" response="00000000" foes="00000000"/>
        <request index="6" response="00011110" foes="00011110"/>
        <request index="7" response="00010001" foes="00010001"/>
    </junction>
    <junction id="107" type="priority" x="274.78" y="195.54" incLanes="33_60_61_0 33_60_61_1 33_60_61_2 36_62_0 36_62_1 14_58_0 14_58_1 31_59_0 31_59_1" intLanes="" shape="284.13,204.46 282.75,191.43 281.19,187.37 271.39,187.55 266.42,189.13 266.64,202.23 268.10,206.10 281.19,206.27">
        <request index="0" response="00000000000" foes="00000010000"/>
        <request index="1" response="00000000000" foes="11100110000"/>
        <request index="2" response="00011000000" foes="11011110000"/>
        <request index="3" response="00010000000" foes="10010000000"/>
        <request index="4" response="00010000111" foes="10010000111"/>
        <request index="5" response="01110000110" foes="01110000110"/>
        <request index="6" response="00000000000" foes="01000000100"/>
        <request index="7" response="00000000000" foes="11000111100"/>
        <request index="8" response="00000000010" foes="00000100010"/>
        <request index="9" response="00011000110" foes="00011100110"/>
        <request index="10" response="00010011110" foes="00010011110"/>
    </junction>
    <junction id="109" type="priority" x="117.89" y="272.24" incLanes="16_0 12_0" intLanes="" shape="114.65,273.75 121.14,273.73 121.13,270.73 111.33,270.77">
        <request index="0" response="000" foes="000"/>
        <request index="1" response="000" foes="000"/>
        <request index="2" response="000" foes="000"/>
    </junction>
    <junction id="110" type="priority" x="118.73" y="464.57" incLanes="20_0 23_54_0 23_54_1 26_55_0 26_55_1" intLanes="" shape="121.94,456.16 112.14,456.21 110.65,457.64 110.19,467.43 112.16,469.02 125.26,469.08">
        <request index="0" response="0011000" foes="0011000"/>
        <request index="1" response="1111000" foes="1111000"/>
        <request index="2" response="0000000" foes="1000000"/>
        <request index="3" response="0000000" foes="1000011"/>
        <request index="4" response="0000000" foes="1000011"/>
        <request index="5" response="0000000" foes="0000010"/>
        <request index="6" response="0011100" foes="0011110"/>
    </junction>
    <junction id="111" type="priority" x="118.14" y="589.00" incLanes="29_0 25_56_0 25_56_1 28_57_0 28_57_1" intLanes="" shape="114.99,593.64 121.49,593.50 124.73,580.78 111.63,580.72 110.12,582.17 109.78,591.96">
        <request index="0" response="0001000" foes="0001000"/>
        <request index="1" response="1111000" foes="1111000"/>
        <request index="2" response="0000000" foes="1000000"/>
        <request index="3" response="0000000" foes="1000011"/>
        <request index="4" response="0000000" foes="0000010"/>
        <request index="5" response="0000000" foes="0000010"/>
        <request index="6" response="0001100" foes="0001110"/>
    </junction>
    <junction id="191" type="priority" x="118.14" y="347.14" incLanes="19_48_0 19_48_1 21_49_0 21_49_1 15_0 53_52_0 53_52_1 51_50_0 51_50_1" intLanes="" shape="111.63,355.34 121.43,355.29 122.92,353.84 123.32,340.74 121.35,335.57 114.85,335.59 110.66,334.30 107.06,339.72 106.81,340.54 106.77,350.34">
        <request index="0" response="00000001000" foes="00000001000"/>
        <request index="1" response="11111001000" foes="11111001000"/>
        <request index="2" response="00000000000" foes="10000100000"/>
        <request index="3" response="00000000000" foes="10000100011"/>
        <request index="4" response="01100000000" foes="01110000000"/>
        <request index="5" response="11100001100" foes="11110001100"/>
        <request index="6" response="00000000000" foes="00000000010"/>
        <request index="7" response="01100110000" foes="01100110010"/>
        <request index="8" response="00000000000" foes="00010110010"/>
        <request index="9" response="00000000000" foes="00010110010"/>
        <request index="10" response="00000001100" foes="00000101110"/>
    </junction>
    <junction id="195" type="priority" x="273.81" y="271.77" incLanes="22_64_0 22_64_1 35_65_0 35_65_1 32_63_0 32_63_1 34_66_0 34_66_1" intLanes="" shape="267.36,279.79 280.46,279.63 282.18,278.09 281.90,268.29 280.46,264.10 267.36,263.93 265.48,265.49 265.80,275.29">
        <request index="0" response="000000001000" foes="000100001000"/>
        <request index="1" response="111000011000" foes="111100011000"/>
        <request index="2" response="000000000000" foes="100011000000"/>
        <request index="3" response="000000000000" foes="100111000011"/>
        <request index="4" response="011000000000" foes="011111000010"/>
        <request index="5" response="010000000000" foes="010000000000"/>
        <request index="6" response="110000011100" foes="110000011100"/>
        <request index="7" response="110000011100" foes="110000011100"/>
        <request index="8" response="110000011011" foes="110000011011"/>
        <request index="9" response="000000000000" foes="000000010010"/>
        <request index="10" response="000000000000" foes="000111110010"/>
        <request index="11" response="000000001100" foes="000111001110"/>
    </junction>
    <junction id="gneJ28" type="dead_end" x="119.31" y="644.50" incLanes="30_0" intLanes="" shape="119.26,644.50 116.06,644.57 122.56,644.43 119.36,644.50"/>
    <junction id="gneJ36" type="dead_end" x="49.61" y="586.61" incLanes="27_0" intLanes="" shape="49.61,586.56 49.84,580.06 49.50,589.86 49.61,586.66"/>
    <junction id="gneJ37" type="dead_end" x="52.17" y="461.48" incLanes="24_0" intLanes="" shape="52.17,461.43 52.47,454.94 52.02,464.73 52.17,461.53"/>
    <junction id="gneJ38" type="dead_end" x="0.00" y="346.62" incLanes="18_0" intLanes="" shape="0.00,346.57 0.03,340.07 -0.01,349.87 -0.00,346.67"/>
    <junction id="gneJ40" type="dead_end" x="23.89" y="199.40" incLanes="44_0" intLanes="" shape="23.89,199.35 23.85,196.15 23.93,202.65 23.89,199.45"/>
    <junction id="gneJ47" type="dead_end" x="222.32" y="273.47" incLanes="40_0" intLanes="" shape="222.32,273.42 222.10,266.92 222.43,276.72 222.32,273.52"/>
    <junction id="gneJ48" type="dead_end" x="329.84" y="270.18" incLanes="41_0" intLanes="" shape="329.84,270.23 330.03,276.73 329.75,266.93 329.84,270.13"/>
    <junction id="gneJ49" type="dead_end" x="326.55" y="190.08" incLanes="39_0" intLanes="" shape="326.56,190.13 327.58,199.88 326.21,186.85 326.54,190.03"/>
    <junction id="gneJ50" type="dead_end" x="273.89" y="145.10" incLanes="37_0" intLanes="" shape="273.94,145.10 280.44,144.98 270.64,145.16 273.84,145.10"/>
    <junction id="gneJ51" type="dead_end" x="154.29" y="117.66" incLanes="38_0" intLanes="" shape="154.29,117.71 154.17,120.91 154.41,114.41 154.29,117.61"/>
    <junction id="gneJ52" type="dead_end" x="112.26" y="0.00" incLanes="3_0" intLanes="" shape="112.31,0.00 118.80,0.29 109.01,-0.14 112.21,-0.00"/>
    <junction id="gneJ53" type="dead_end" x="158.11" y="46.67" incLanes="42_0" intLanes="" shape="158.11,46.72 157.96,49.92 158.26,43.42 158.11,46.62"/>
    <junction id="gneJ54" type="dead_end" x="53.31" y="41.75" incLanes="43_0" intLanes="" shape="53.31,41.70 53.47,38.50 53.15,45.00 53.31,41.80"/>
    <junction id="gneJ55" type="unregulated" x="32.66" y="294.35" incLanes="" intLanes="" shape="32.68,294.31 34.23,291.50"/>

    <connection from="1" to="6" fromLane="0" toLane="0" dir="r" state="m"/>
    <connection from="1" to="43" fromLane="0" toLane="0" dir="s" state="m"/>
    <connection from="1" to="3" fromLane="0" toLane="0" dir="l" state="m"/>
    <connection from="10" to="9" fromLane="0" toLane="0" dir="r" state="m"/>
    <connection from="11_47" to="9" fromLane="0" toLane="0" dir="s" state="M"/>
    <connection from="11_47" to="14_58" fromLane="1" toLane="1" dir="l" state="M"/>
    <connection from="12" to="15" fromLane="0" toLane="0" dir="s" state="M"/>
    <connection from="14_58" to="37" fromLane="0" toLane="0" dir="r" state="M"/>
    <connection from="14_58" to="39" fromLane="1" toLane="0" dir="s" state="M"/>
    <connection from="15" to="22_64" fromLane="0" toLane="0" dir="r" state="m"/>
    <connection from="15" to="20" fromLane="0" toLane="0" dir="s" state="m"/>
    <connection from="16" to="11_47" fromLane="0" toLane="0" dir="s" state="M"/>
    <connection from="16" to="11_47" fromLane="0" toLane="1" dir="s" state="M"/>
    <connection from="17" to="53_52" fromLane="0" toLane="0" dir="s" state="M"/>
    <connection from="17" to="53_52" fromLane="0" toLane="1" dir="s" state="M"/>
    <connection from="19_48" to="18" fromLane="0" toLane="0" dir="r" state="m"/>
    <connection from="19_48" to="16" fromLane="1" toLane="0" dir="s" state="m"/>
    <connection from="20" to="25_56" fromLane="0" toLane="0" dir="s" state="m"/>
    <connection from="20" to="24" fromLane="0" toLane="0" dir="l" state="m"/>
    <connection from="21_49" to="20" fromLane="0" toLane="0" dir="r" state="M"/>
    <connection from="21_49" to="18" fromLane="1" toLane="0" dir="s" state="M"/>
    <connection from="22_64" to="40" fromLane="0" toLane="0" dir="r" state="m"/>
    <connection from="22_64" to="31_59" fromLane="1" toLane="1" dir="s" state="m"/>
    <connection from="23_54" to="19_48" fromLane="0" toLane="0" dir="r" state="M"/>
    <connection from="23_54" to="25_56" fromLane="0" toLane="0" dir="l" state="M"/>
    <connection from="23_54" to="25_56" fromLane="1" toLane="1" dir="l" state="M"/>
    <connection from="25_56" to="30" fromLane="0" toLane="0" dir="s" state="M"/>
    <connection from="25_56" to="27" fromLane="1" toLane="0" dir="l" state="M"/>
    <connection from="26_55" to="24" fromLane="0" toLane="0" dir="r" state="M"/>
    <connection from="26_55" to="19_48" fromLane="1" toLane="0" dir="s" state="m"/>
    <connection from="28_57" to="26_55" fromLane="0" toLane="0" dir="r" state="M"/>
    <connection from="28_57" to="26_55" fromLane="1" toLane="1" dir="r" state="M"/>
    <connection from="28_57" to="30" fromLane="1" toLane="0" dir="l" state="m"/>
    <connection from="29" to="27" fromLane="0" toLane="0" dir="r" state="m"/>
    <connection from="29" to="26_55" fromLane="0" toLane="1" dir="s" state="m"/>
    <connection from="31_59" to="46_13" fromLane="0" toLane="0" dir="r" state="m"/>
    <connection from="31_59" to="37" fromLane="0" toLane="0" dir="s" state="m"/>
    <connection from="31_59" to="39" fromLane="1" toLane="0" dir="l" state="m"/>
    <connection from="32_63" to="41" fromLane="0" toLane="0" dir="r" state="m"/>
    <connection from="32_63" to="21_49" fromLane="0" toLane="0" dir="s" state="m"/>
    <connection from="32_63" to="21_49" fromLane="0" toLane="1" dir="s" state="m"/>
    <connection from="32_63" to="40" fromLane="1" toLane="0" dir="l" state="m"/>
    <connection from="33_60_61" to="32_63" fromLane="0" toLane="0" dir="r" state="M"/>
    <connection from="33_60_61" to="46_13" fromLane="1" toLane="1" dir="s" state="M"/>
    <connection from="33_60_61" to="37" fromLane="2" toLane="0" dir="l" state="m"/>
    <connection from="34_66" to="31_59" fromLane="0" toLane="0" dir="r" state="M"/>
    <connection from="34_66" to="41" fromLane="0" toLane="0" dir="s" state="M"/>
    <connection from="34_66" to="21_49" fromLane="1" toLane="1" dir="l" state="m"/>
    <connection from="35_65" to="21_49" fromLane="0" toLane="0" dir="r" state="M"/>
    <connection from="35_65" to="40" fromLane="0" toLane="0" dir="s" state="M"/>
    <connection from="35_65" to="31_59" fromLane="1" toLane="1" dir="l" state="m"/>
    <connection from="36_62" to="39" fromLane="0" toLane="0" dir="r" state="m"/>
    <connection from="36_62" to="32_63" fromLane="0" toLane="0" dir="s" state="m"/>
    <connection from="36_62" to="46_13" fromLane="1" toLane="1" dir="l" state="m"/>
    <connection from="4" to="3" fromLane="0" toLane="0" dir="r" state="m"/>
    <connection from="4" to="42" fromLane="0" toLane="0" dir="s" state="m"/>
    <connection from="4" to="6" fromLane="0" toLane="0" dir="l" state="m"/>
    <connection from="45_2" to="42" fromLane="0" toLane="0" dir="r" state="M"/>
    <connection from="45_2" to="6" fromLane="0" toLane="0" dir="s" state="M"/>
    <connection from="45_2" to="43" fromLane="1" toLane="0" dir="l" state="m"/>
    <connection from="46_13" to="12" fromLane="0" toLane="0" dir="r" state="M"/>
    <connection from="46_13" to="44" fromLane="1" toLane="0" dir="s" state="m"/>
    <connection from="46_13" to="9" fromLane="1" toLane="0" dir="l" state="m"/>
    <connection from="5" to="3" fromLane="0" toLane="0" dir="s" state="M"/>
    <connection from="51_50" to="22_64" fromLane="0" toLane="0" dir="s" state="M"/>
    <connection from="51_50" to="22_64" fromLane="0" toLane="1" dir="s" state="M"/>
    <connection from="51_50" to="20" fromLane="1" toLane="0" dir="l" state="m"/>
    <connection from="53_52" to="16" fromLane="0" toLane="0" dir="r" state="m"/>
    <connection from="53_52" to="22_64" fromLane="1" toLane="0" dir="s" state="m"/>
    <connection from="6" to="38" fromLane="0" toLane="0" dir="r" state="M"/>
    <connection from="6" to="8" fromLane="0" toLane="0" dir="s" state="M"/>
    <connection from="7" to="8" fromLane="0" toLane="0" dir="r" state="m"/>
    <connection from="7" to="5" fromLane="0" toLane="0" dir="l" state="m"/>
    <connection from="8" to="14_58" fromLane="0" toLane="0" dir="r" state="M"/>
    <connection from="8" to="12" fromLane="0" toLane="0" dir="s" state="m"/>
    <connection from="9" to="5" fromLane="0" toLane="0" dir="s" state="M"/>

</net>
