<?xml version="1.0" encoding="UTF-8"?>

<!-- generated on Thu Jun  7 17:05:37 2018 by Eclipse SUMO duarouter Version bd2c4bd
<configuration xmlns:xsi="http://www.w3.org/2001/XMLSchema-instance" xsi:noNamespaceSchemaLocation="http://sumo.dlr.de/xsd/duarouterConfiguration.xsd">

    <input>
        <net-file value="osm.net.xml"/>
        <route-files value="osm.passenger_mw.trips.xml"/>
    </input>

    <output>
        <output-file value="osm.passenger_mw.rou.xml"/>
        <alternatives-output value="osm.passenger_mw.rou.alt.xml"/>
    </output>

    <processing>
        <ignore-errors value="true"/>
    </processing>

    <time>
        <begin value="0"/>
        <end value="1800.0"/>
    </time>

    <report>
        <no-warnings value="true"/>
        <no-step-log value="true"/>
    </report>

</configuration>
-->

<routes xmlns:xsi="http://www.w3.org/2001/XMLSchema-instance" xsi:noNamespaceSchemaLocation="http://sumo.dlr.de/xsd/routes_file.xsd">
    <vType id="veh_mw_passenger" speedFactor="normc(1.00,0.10,0.20,2.00)" vClass="passenger" sigma="0.8"/>
    <vehicle id="veh_mw0" type="veh_mw_passenger" depart="0.00" departLane="free" departPos="last" departSpeed="max">
        <route edges="290296351 240042212 151495040 264308374 399250313 264308373"/>
    </vehicle>
    <vehicle id="veh_mw1" type="veh_mw_passenger" depart="0.70" departLane="free" departPos="last" departSpeed="max">
        <route edges="290296351 240042212 151495040 264308374 399250313 264308373"/>
    </vehicle>
    <vehicle id="veh_mw2" type="veh_mw_passenger" depart="1.40" departLane="free" departPos="last" departSpeed="max">
        <route edges="264306385 264308375 264308383 4054057 264308376"/>
    </vehicle>
    <vehicle id="veh_mw3" type="veh_mw_passenger" depart="2.10" departLane="free" departPos="last" departSpeed="max">
        <route edges="264306385 264308375 264308383 4054057 264308376"/>
    </vehicle>
    <vehicle id="veh_mw4" type="veh_mw_passenger" depart="2.80" departLane="free" departPos="last" departSpeed="max">
        <route edges="290296351 240042212 151495040 264308374 399250313 264308373"/>
    </vehicle>
    <vehicle id="veh_mw5" type="veh_mw_passenger" depart="3.50" departLane="free" departPos="last" departSpeed="max">
        <route edges="290296351 240042212 151495040 264308374 399250313 264308373"/>
    </vehicle>
    <vehicle id="veh_mw6" type="veh_mw_passenger" depart="4.20" departLane="free" departPos="last" departSpeed="max">
        <route edges="264306385 264308375 264308383 4054057 264308376"/>
    </vehicle>
    <vehicle id="veh_mw7" type="veh_mw_passenger" depart="4.90" departLane="free" departPos="last" departSpeed="max">
        <route edges="290296351 240042212 151495040 264308374 399250313 264308373"/>
    </vehicle>
    <vehicle id="veh_mw8" type="veh_mw_passenger" depart="5.60" departLane="free" departPos="last" departSpeed="max">
        <route edges="290296351 240042212 151495040 264308374 399250313 264308373"/>
    </vehicle>
    <vehicle id="veh_mw9" type="veh_mw_passenger" depart="6.30" departLane="free" departPos="last" departSpeed="max">
        <route edges="264306385 264308375 264308383 4054057 264308376"/>
    </vehicle>
    <vehicle id="veh_mw10" type="veh_mw_passenger" depart="7.00" departLane="free" departPos="last" departSpeed="max">
        <route edges="264306385 264308375 264308383 4054057 264308376"/>
    </vehicle>
    <vehicle id="veh_mw11" type="veh_mw_passenger" depart="7.70" departLane="free" departPos="last" departSpeed="max">
        <route edges="264306385 264308375 264308383 4054057 264308376"/>
    </vehicle>
    <vehicle id="veh_mw12" type="veh_mw_passenger" depart="8.40" departLane="free" departPos="last" departSpeed="max">
        <route edges="290296351 240042212 151495040 264308374 399250313 264308373"/>
    </vehicle>
    <vehicle id="veh_mw13" type="veh_mw_passenger" depart="9.10" departLane="free" departPos="last" departSpeed="max">
        <route edges="290296351 240042212 151495040 264308374 399250313 264308373"/>
    </vehicle>
    <vehicle id="veh_mw14" type="veh_mw_passenger" depart="9.80" departLane="free" departPos="last" departSpeed="max">
        <route edges="290296351 240042212 151495040 264308374 399250313 264308373"/>
    </vehicle>
    <vehicle id="veh_mw15" type="veh_mw_passenger" depart="10.50" departLane="free" departPos="last" departSpeed="max">
        <route edges="290296351 240042212 151495040 264308374 399250313 264308373"/>
    </vehicle>
    <vehicle id="veh_mw16" type="veh_mw_passenger" depart="11.20" departLane="free" departPos="last" departSpeed="max">
        <route edges="264306385 264308375 264308383 4054057 264308376"/>
    </vehicle>
    <vehicle id="veh_mw17" type="veh_mw_passenger" depart="11.90" departLane="free" departPos="last" departSpeed="max">
        <route edges="290296351 240042212 151495040 264308374 399250313 264308373"/>
    </vehicle>
    <vehicle id="veh_mw18" type="veh_mw_passenger" depart="12.60" departLane="free" departPos="last" departSpeed="max">
        <route edges="264306385 264308375 264308383 4054057 264308376"/>
    </vehicle>
    <vehicle id="veh_mw19" type="veh_mw_passenger" depart="13.30" departLane="free" departPos="last" departSpeed="max">
        <route edges="264306385 264308375 264308383 4054057 264308376"/>
    </vehicle>
    <vehicle id="veh_mw20" type="veh_mw_passenger" depart="14.00" departLane="free" departPos="last" departSpeed="max">
        <route edges="264306385 264308375 264308383 4054057 264308376"/>
    </vehicle>
    <vehicle id="veh_mw21" type="veh_mw_passenger" depart="14.70" departLane="free" departPos="last" departSpeed="max">
        <route edges="290296351 240042212 151495040 264308374 399250313 264308373"/>
    </vehicle>
    <vehicle id="veh_mw23" type="veh_mw_passenger" depart="16.10" departLane="free" departPos="last" departSpeed="max">
        <route edges="264306385 264308375 264308383 4054057 264308376"/>
    </vehicle>
    <vehicle id="veh_mw24" type="veh_mw_passenger" depart="16.80" departLane="free" departPos="last" departSpeed="max">
        <route edges="290296351 240042212 151495040 264308374 399250313 264308373"/>
    </vehicle>
    <vehicle id="veh_mw25" type="veh_mw_passenger" depart="17.50" departLane="free" departPos="last" departSpeed="max">
        <route edges="240042212 151495040 264308374 399250313 264308373"/>
    </vehicle>
    <vehicle id="veh_mw26" type="veh_mw_passenger" depart="18.20" departLane="free" departPos="last" departSpeed="max">
        <route edges="264306385 264308375 264308383 4054057 264308376"/>
    </vehicle>
    <vehicle id="veh_mw27" type="veh_mw_passenger" depart="18.90" departLane="free" departPos="last" departSpeed="max">
        <route edges="264306385 264308375 264308383 4054057 264308376"/>
    </vehicle>
    <vehicle id="veh_mw28" type="veh_mw_passenger" depart="19.60" departLane="free" departPos="last" departSpeed="max">
        <route edges="290296351 240042212 151495040 264308374 399250313 264308373"/>
    </vehicle>
    <vehicle id="veh_mw29" type="veh_mw_passenger" depart="20.30" departLane="free" departPos="last" departSpeed="max">
        <route edges="264306385 264308375 264308383 4054057 264308376"/>
    </vehicle>
    <vehicle id="veh_mw30" type="veh_mw_passenger" depart="21.00" departLane="free" departPos="last" departSpeed="max">
        <route edges="264306385 264308375 264308383 4054057 264308376"/>
    </vehicle>
    <vehicle id="veh_mw31" type="veh_mw_passenger" depart="21.70" departLane="free" departPos="last" departSpeed="max">
        <route edges="264306385 264308375 264308383 4054057 264308376"/>
    </vehicle>
    <vehicle id="veh_mw32" type="veh_mw_passenger" depart="22.40" departLane="free" departPos="last" departSpeed="max">
        <route edges="264306385 264308375 264308383 4054057 264308376"/>
    </vehicle>
    <vehicle id="veh_mw33" type="veh_mw_passenger" depart="23.10" departLane="free" departPos="last" departSpeed="max">
        <route edges="264306385 264308375 264308383 4054057 264308376"/>
    </vehicle>
    <vehicle id="veh_mw34" type="veh_mw_passenger" depart="23.80" departLane="free" departPos="last" departSpeed="max">
        <route edges="264306385 264308375 264308383 4054057 264308376"/>
    </vehicle>
    <vehicle id="veh_mw35" type="veh_mw_passenger" depart="24.50" departLane="free" departPos="last" departSpeed="max">
        <route edges="290296351 240042212 151495040 264308374 399250313 264308373"/>
    </vehicle>
    <vehicle id="veh_mw36" type="veh_mw_passenger" depart="25.20" departLane="free" departPos="last" departSpeed="max">
        <route edges="264306385 264308375 264308383 4054057 264308376"/>
    </vehicle>
    <vehicle id="veh_mw37" type="veh_mw_passenger" depart="25.90" departLane="free" departPos="last" departSpeed="max">
        <route edges="264306385 264308375 264308383 4054057 264308376"/>
    </vehicle>
    <vehicle id="veh_mw38" type="veh_mw_passenger" depart="26.60" departLane="free" departPos="last" departSpeed="max">
        <route edges="290296351 240042212 151495040 264308374 399250313 264308373"/>
    </vehicle>
    <vehicle id="veh_mw39" type="veh_mw_passenger" depart="27.30" departLane="free" departPos="last" departSpeed="max">
        <route edges="290296351 240042212 151495040 264308374 399250313 264308373"/>
    </vehicle>
    <vehicle id="veh_mw40" type="veh_mw_passenger" depart="28.00" departLane="free" departPos="last" departSpeed="max">
        <route edges="290296351 240042212 151495040 264308374 399250313 264308373"/>
    </vehicle>
    <vehicle id="veh_mw41" type="veh_mw_passenger" depart="28.70" departLane="free" departPos="last" departSpeed="max">
        <route edges="264306385 264308375 264308383 4054057 264308376"/>
    </vehicle>
    <vehicle id="veh_mw42" type="veh_mw_passenger" depart="29.40" departLane="free" departPos="last" departSpeed="max">
        <route edges="264306385 264308375 264308383 4054057 264308376"/>
    </vehicle>
    <vehicle id="veh_mw43" type="veh_mw_passenger" depart="30.10" departLane="free" departPos="last" departSpeed="max">
        <route edges="290296351 240042212 151495040 264308374 399250313 264308373"/>
    </vehicle>
    <vehicle id="veh_mw45" type="veh_mw_passenger" depart="31.50" departLane="free" departPos="last" departSpeed="max">
        <route edges="290296351 240042212 151495040 264308374 399250313 264308373"/>
    </vehicle>
    <vehicle id="veh_mw46" type="veh_mw_passenger" depart="32.20" departLane="free" departPos="last" departSpeed="max">
        <route edges="264306385 264308375 264308383 4054057 264308376"/>
    </vehicle>
    <vehicle id="veh_mw47" type="veh_mw_passenger" depart="32.90" departLane="free" departPos="last" departSpeed="max">
        <route edges="264306385 264308375 264308383 4054057 264308376"/>
    </vehicle>
    <vehicle id="veh_mw48" type="veh_mw_passenger" depart="33.60" departLane="free" departPos="last" departSpeed="max">
        <route edges="264306385 264308375 264308383 4054057 264308376"/>
    </vehicle>
    <vehicle id="veh_mw49" type="veh_mw_passenger" depart="34.30" departLane="free" departPos="last" departSpeed="max">
        <route edges="264306385 264308375 264308383 4054057 264308376"/>
    </vehicle>
    <vehicle id="veh_mw50" type="veh_mw_passenger" depart="35.00" departLane="free" departPos="last" departSpeed="max">
        <route edges="290296351 240042212 151495040 264308374 399250313 264308373"/>
    </vehicle>
    <vehicle id="veh_mw51" type="veh_mw_passenger" depart="35.70" departLane="free" departPos="last" departSpeed="max">
        <route edges="264306385 264308375 264308383 4054057 264308376"/>
    </vehicle>
    <vehicle id="veh_mw52" type="veh_mw_passenger" depart="36.40" departLane="free" departPos="last" departSpeed="max">
        <route edges="264306385 264308375 264308383 4054057 264308376"/>
    </vehicle>
    <vehicle id="veh_mw53" type="veh_mw_passenger" depart="37.10" departLane="free" departPos="last" departSpeed="max">
        <route edges="290296351 240042212 151495040 264308374 399250313 264308373"/>
    </vehicle>
    <vehicle id="veh_mw54" type="veh_mw_passenger" depart="37.80" departLane="free" departPos="last" departSpeed="max">
        <route edges="264306385 264308375 264308383 4054057 264308376"/>
    </vehicle>
    <vehicle id="veh_mw55" type="veh_mw_passenger" depart="38.50" departLane="free" departPos="last" departSpeed="max">
        <route edges="264306385 264308375 264308383 4054057 264308376"/>
    </vehicle>
    <vehicle id="veh_mw56" type="veh_mw_passenger" depart="39.20" departLane="free" departPos="last" departSpeed="max">
        <route edges="290296351 240042212 151495040 264308374 399250313 264308373"/>
    </vehicle>
    <vehicle id="veh_mw57" type="veh_mw_passenger" depart="39.90" departLane="free" departPos="last" departSpeed="max">
        <route edges="290296351 240042212 151495040 264308374 399250313 264308373"/>
    </vehicle>
    <vehicle id="veh_mw58" type="veh_mw_passenger" depart="40.60" departLane="free" departPos="last" departSpeed="max">
        <route edges="264306385 264308375 264308383 4054057 264308376"/>
    </vehicle>
    <vehicle id="veh_mw59" type="veh_mw_passenger" depart="41.30" departLane="free" departPos="last" departSpeed="max">
        <route edges="264306385 264308375 264308383 4054057 264308376"/>
    </vehicle>
    <vehicle id="veh_mw60" type="veh_mw_passenger" depart="42.00" departLane="free" departPos="last" departSpeed="max">
        <route edges="290296351 240042212 151495040 264308374 399250313 264308373"/>
    </vehicle>
    <vehicle id="veh_mw61" type="veh_mw_passenger" depart="42.70" departLane="free" departPos="last" departSpeed="max">
        <route edges="290296351 240042212 151495040 264308374 399250313 264308373"/>
    </vehicle>
    <vehicle id="veh_mw62" type="veh_mw_passenger" depart="43.40" departLane="free" departPos="last" departSpeed="max">
        <route edges="264306385 264308375 264308383 4054057 264308376"/>
    </vehicle>
    <vehicle id="veh_mw63" type="veh_mw_passenger" depart="44.10" departLane="free" departPos="last" departSpeed="max">
        <route edges="290296351 240042212 151495040 264308374 399250313 264308373"/>
    </vehicle>
    <vehicle id="veh_mw64" type="veh_mw_passenger" depart="44.80" departLane="free" departPos="last" departSpeed="max">
        <route edges="264306385 264308375 264308383 4054057 264308376"/>
    </vehicle>
    <vehicle id="veh_mw65" type="veh_mw_passenger" depart="45.50" departLane="free" departPos="last" departSpeed="max">
        <route edges="290296351 240042212 151495040 264308374 399250313 264308373"/>
    </vehicle>
    <vehicle id="veh_mw66" type="veh_mw_passenger" depart="46.20" departLane="free" departPos="last" departSpeed="max">
        <route edges="264306385 264308375 264308383 4054057 264308376"/>
    </vehicle>
    <vehicle id="veh_mw67" type="veh_mw_passenger" depart="46.90" departLane="free" departPos="last" departSpeed="max">
        <route edges="264306385 264308375 264308383 4054057 264308376"/>
    </vehicle>
    <vehicle id="veh_mw68" type="veh_mw_passenger" depart="47.60" departLane="free" departPos="last" departSpeed="max">
        <route edges="290296351 240042212 151495040 264308374 399250313 264308373"/>
    </vehicle>
    <vehicle id="veh_mw69" type="veh_mw_passenger" depart="48.30" departLane="free" departPos="last" departSpeed="max">
        <route edges="264306385 264308375 264308383 4054057 264308376"/>
    </vehicle>
    <vehicle id="veh_mw70" type="veh_mw_passenger" depart="49.00" departLane="free" departPos="last" departSpeed="max">
        <route edges="264306385 264308375 264308383 4054057 264308376"/>
    </vehicle>
    <vehicle id="veh_mw71" type="veh_mw_passenger" depart="49.70" departLane="free" departPos="last" departSpeed="max">
        <route edges="264306385 264308375 264308383 4054057 264308376"/>
    </vehicle>
    <vehicle id="veh_mw72" type="veh_mw_passenger" depart="50.40" departLane="free" departPos="last" departSpeed="max">
        <route edges="264306385 264308375 264308383 4054057 264308376"/>
    </vehicle>
    <vehicle id="veh_mw73" type="veh_mw_passenger" depart="51.10" departLane="free" departPos="last" departSpeed="max">
        <route edges="290296351 240042212 151495040 264308374 399250313 264308373"/>
    </vehicle>
    <vehicle id="veh_mw74" type="veh_mw_passenger" depart="51.80" departLane="free" departPos="last" departSpeed="max">
        <route edges="290296351 240042212 151495040 264308374 399250313 264308373"/>
    </vehicle>
    <vehicle id="veh_mw75" type="veh_mw_passenger" depart="52.50" departLane="free" departPos="last" departSpeed="max">
        <route edges="264306385 264308375 264308383 4054057 264308376"/>
    </vehicle>
    <vehicle id="veh_mw76" type="veh_mw_passenger" depart="53.20" departLane="free" departPos="last" departSpeed="max">
        <route edges="290296351 240042212 151495040 264308374 399250313 264308373"/>
    </vehicle>
    <vehicle id="veh_mw77" type="veh_mw_passenger" depart="53.90" departLane="free" departPos="last" departSpeed="max">
        <route edges="264306385 264308375 264308383 4054057 264308376"/>
    </vehicle>
    <vehicle id="veh_mw78" type="veh_mw_passenger" depart="54.60" departLane="free" departPos="last" departSpeed="max">
        <route edges="290296351 240042212 151495040 264308374 399250313 264308373"/>
    </vehicle>
    <vehicle id="veh_mw79" type="veh_mw_passenger" depart="55.30" departLane="free" departPos="last" departSpeed="max">
        <route edges="290296351 240042212 151495040 264308374 399250313 264308373"/>
    </vehicle>
    <vehicle id="veh_mw80" type="veh_mw_passenger" depart="56.00" departLane="free" departPos="last" departSpeed="max">
        <route edges="290296351 240042212 151495040 264308374 399250313 264308373"/>
    </vehicle>
    <vehicle id="veh_mw81" type="veh_mw_passenger" depart="56.70" departLane="free" departPos="last" departSpeed="max">
        <route edges="290296351 240042212 151495040 264308374 399250313 264308373"/>
    </vehicle>
    <vehicle id="veh_mw82" type="veh_mw_passenger" depart="57.40" departLane="free" departPos="last" departSpeed="max">
        <route edges="290296351 240042212 151495040 264308374 399250313 264308373"/>
    </vehicle>
    <vehicle id="veh_mw83" type="veh_mw_passenger" depart="58.10" departLane="free" departPos="last" departSpeed="max">
        <route edges="290296351 240042212 151495040 264308374 399250313 264308373"/>
    </vehicle>
    <vehicle id="veh_mw84" type="veh_mw_passenger" depart="58.80" departLane="free" departPos="last" departSpeed="max">
        <route edges="264306385 264308375 264308383 4054057 264308376"/>
    </vehicle>
    <vehicle id="veh_mw85" type="veh_mw_passenger" depart="59.50" departLane="free" departPos="last" departSpeed="max">
        <route edges="264306385 264308375 264308383 4054057 264308376"/>
    </vehicle>
    <vehicle id="veh_mw86" type="veh_mw_passenger" depart="60.20" departLane="free" departPos="last" departSpeed="max">
        <route edges="264306385 264308375 264308383 4054057 264308376"/>
    </vehicle>
    <vehicle id="veh_mw87" type="veh_mw_passenger" depart="60.90" departLane="free" departPos="last" departSpeed="max">
        <route edges="290296351 240042212 151495040 264308374 399250313 264308373"/>
    </vehicle>
    <vehicle id="veh_mw88" type="veh_mw_passenger" depart="61.60" departLane="free" departPos="last" departSpeed="max">
        <route edges="264306385 264308375 264308383 4054057 264308376"/>
    </vehicle>
    <vehicle id="veh_mw89" type="veh_mw_passenger" depart="62.30" departLane="free" departPos="last" departSpeed="max">
        <route edges="290296351 240042212 151495040 264308374 399250313 264308373"/>
    </vehicle>
    <vehicle id="veh_mw90" type="veh_mw_passenger" depart="63.00" departLane="free" departPos="last" departSpeed="max">
        <route edges="264306385 264308375 264308383 4054057 264308376"/>
    </vehicle>
    <vehicle id="veh_mw91" type="veh_mw_passenger" depart="63.70" departLane="free" departPos="last" departSpeed="max">
        <route edges="151495040 264308374 399250313 264308373"/>
    </vehicle>
    <vehicle id="veh_mw92" type="veh_mw_passenger" depart="64.40" departLane="free" departPos="last" departSpeed="max">
        <route edges="264306385 264308375 264308383 4054057 264308376"/>
    </vehicle>
    <vehicle id="veh_mw93" type="veh_mw_passenger" depart="65.10" departLane="free" departPos="last" departSpeed="max">
        <route edges="290296351 240042212 151495040 264308374 399250313 264308373"/>
    </vehicle>
    <vehicle id="veh_mw94" type="veh_mw_passenger" depart="65.80" departLane="free" departPos="last" departSpeed="max">
        <route edges="264306385 264308375 264308383 4054057 264308376"/>
    </vehicle>
    <vehicle id="veh_mw95" type="veh_mw_passenger" depart="66.50" departLane="free" departPos="last" departSpeed="max">
        <route edges="290296351 240042212 151495040 264308374 399250313 264308373"/>
    </vehicle>
    <vehicle id="veh_mw96" type="veh_mw_passenger" depart="67.20" departLane="free" departPos="last" departSpeed="max">
        <route edges="264306385 264308375 264308383 4054057 264308376"/>
    </vehicle>
    <vehicle id="veh_mw97" type="veh_mw_passenger" depart="67.90" departLane="free" departPos="last" departSpeed="max">
        <route edges="290296351 240042212 151495040 264308374 399250313 264308373"/>
    </vehicle>
    <vehicle id="veh_mw98" type="veh_mw_passenger" depart="68.60" departLane="free" departPos="last" departSpeed="max">
        <route edges="290296351 240042212 151495040 264308374 399250313 264308373"/>
    </vehicle>
    <vehicle id="veh_mw99" type="veh_mw_passenger" depart="69.30" departLane="free" departPos="last" departSpeed="max">
        <route edges="290296351 240042212 151495040 264308374 399250313 264308373"/>
    </vehicle>
    <vehicle id="veh_mw100" type="veh_mw_passenger" depart="70.00" departLane="free" departPos="last" departSpeed="max">
        <route edges="264306385 264308375 264308383 4054057 264308376"/>
    </vehicle>
    <vehicle id="veh_mw101" type="veh_mw_passenger" depart="70.70" departLane="free" departPos="last" departSpeed="max">
        <route edges="264306385 264308375 264308383 4054057 264308376"/>
    </vehicle>
    <vehicle id="veh_mw102" type="veh_mw_passenger" depart="71.40" departLane="free" departPos="last" departSpeed="max">
        <route edges="290296351 240042212 151495040 264308374 399250313 264308373"/>
    </vehicle>
    <vehicle id="veh_mw103" type="veh_mw_passenger" depart="72.10" departLane="free" departPos="last" departSpeed="max">
        <route edges="264306385 264308375 264308383 4054057 264308376"/>
    </vehicle>
    <vehicle id="veh_mw104" type="veh_mw_passenger" depart="72.80" departLane="free" departPos="last" departSpeed="max">
        <route edges="290296351 240042212 151495040 264308374 399250313 264308373"/>
    </vehicle>
    <vehicle id="veh_mw105" type="veh_mw_passenger" depart="73.50" departLane="free" departPos="last" departSpeed="max">
        <route edges="264306385 264308375 264308383 4054057 264308376"/>
    </vehicle>
    <vehicle id="veh_mw106" type="veh_mw_passenger" depart="74.20" departLane="free" departPos="last" departSpeed="max">
        <route edges="264306385 264308375 264308383 4054057 264308376"/>
    </vehicle>
    <vehicle id="veh_mw107" type="veh_mw_passenger" depart="74.90" departLane="free" departPos="last" departSpeed="max">
        <route edges="264306385 264308375 264308383 4054057 264308376"/>
    </vehicle>
    <vehicle id="veh_mw108" type="veh_mw_passenger" depart="75.60" departLane="free" departPos="last" departSpeed="max">
        <route edges="290296351 240042212 151495040 264308374 399250313 264308373"/>
    </vehicle>
    <vehicle id="veh_mw109" type="veh_mw_passenger" depart="76.30" departLane="free" departPos="last" departSpeed="max">
        <route edges="290296351 240042212 151495040 264308374 399250313 264308373"/>
    </vehicle>
    <vehicle id="veh_mw110" type="veh_mw_passenger" depart="77.00" departLane="free" departPos="last" departSpeed="max">
        <route edges="264306385 264308375 264308383 4054057 264308376"/>
    </vehicle>
    <vehicle id="veh_mw111" type="veh_mw_passenger" depart="77.70" departLane="free" departPos="last" departSpeed="max">
        <route edges="290296351 240042212 151495040 264308374 399250313 264308373"/>
    </vehicle>
    <vehicle id="veh_mw112" type="veh_mw_passenger" depart="78.40" departLane="free" departPos="last" departSpeed="max">
        <route edges="264306385 264308375 264308383 4054057 264308376"/>
    </vehicle>
    <vehicle id="veh_mw113" type="veh_mw_passenger" depart="79.10" departLane="free" departPos="last" departSpeed="max">
        <route edges="264306385 264308375 264308383 4054057 264308376"/>
    </vehicle>
    <vehicle id="veh_mw114" type="veh_mw_passenger" depart="79.80" departLane="free" departPos="last" departSpeed="max">
        <route edges="264306385 264308375 264308383 4054057 264308376"/>
    </vehicle>
    <vehicle id="veh_mw115" type="veh_mw_passenger" depart="80.50" departLane="free" departPos="last" departSpeed="max">
        <route edges="264306385 264308375 264308383 4054057 264308376"/>
    </vehicle>
    <vehicle id="veh_mw116" type="veh_mw_passenger" depart="81.20" departLane="free" departPos="last" departSpeed="max">
        <route edges="264306385 264308375 264308383 4054057 264308376"/>
    </vehicle>
    <vehicle id="veh_mw117" type="veh_mw_passenger" depart="81.90" departLane="free" departPos="last" departSpeed="max">
        <route edges="290296351 240042212 151495040 264308374 399250313 264308373"/>
    </vehicle>
    <vehicle id="veh_mw118" type="veh_mw_passenger" depart="82.60" departLane="free" departPos="last" departSpeed="max">
        <route edges="264306385 264308375 264308383 4054057 264308376"/>
    </vehicle>
    <vehicle id="veh_mw119" type="veh_mw_passenger" depart="83.30" departLane="free" departPos="last" departSpeed="max">
        <route edges="264306385 264308375 264308383 4054057 264308376"/>
    </vehicle>
    <vehicle id="veh_mw120" type="veh_mw_passenger" depart="84.00" departLane="free" departPos="last" departSpeed="max">
        <route edges="290296351 240042212 151495040 264308374 399250313 264308373"/>
    </vehicle>
    <vehicle id="veh_mw121" type="veh_mw_passenger" depart="84.70" departLane="free" departPos="last" departSpeed="max">
        <route edges="264306385 264308375 264308383 4054057 264308376"/>
    </vehicle>
    <vehicle id="veh_mw123" type="veh_mw_passenger" depart="86.10" departLane="free" departPos="last" departSpeed="max">
        <route edges="290296351 240042212 151495040 264308374 399250313 264308373"/>
    </vehicle>
    <vehicle id="veh_mw124" type="veh_mw_passenger" depart="86.80" departLane="free" departPos="last" departSpeed="max">
        <route edges="264306385 264308375 264308383 4054057 264308376"/>
    </vehicle>
    <vehicle id="veh_mw125" type="veh_mw_passenger" depart="87.50" departLane="free" departPos="last" departSpeed="max">
        <route edges="290296351 240042212 151495040 264308374 399250313 264308373"/>
    </vehicle>
    <vehicle id="veh_mw126" type="veh_mw_passenger" depart="88.20" departLane="free" departPos="last" departSpeed="max">
        <route edges="264306385 264308375 264308383 4054057 264308376"/>
    </vehicle>
    <vehicle id="veh_mw127" type="veh_mw_passenger" depart="88.90" departLane="free" departPos="last" departSpeed="max">
        <route edges="290296351 240042212 151495040 264308374 399250313 264308373"/>
    </vehicle>
    <vehicle id="veh_mw128" type="veh_mw_passenger" depart="89.60" departLane="free" departPos="last" departSpeed="max">
        <route edges="264306385 264308375 264308383 4054057 264308376"/>
    </vehicle>
    <vehicle id="veh_mw129" type="veh_mw_passenger" depart="90.30" departLane="free" departPos="last" departSpeed="max">
        <route edges="290296351 240042212 151495040 264308374 399250313 264308373"/>
    </vehicle>
    <vehicle id="veh_mw130" type="veh_mw_passenger" depart="91.00" departLane="free" departPos="last" departSpeed="max">
        <route edges="290296351 240042212 151495040 264308374 399250313 264308373"/>
    </vehicle>
    <vehicle id="veh_mw131" type="veh_mw_passenger" depart="91.70" departLane="free" departPos="last" departSpeed="max">
        <route edges="264306385 264308375 264308383 4054057 264308376"/>
    </vehicle>
    <vehicle id="veh_mw132" type="veh_mw_passenger" depart="92.40" departLane="free" departPos="last" departSpeed="max">
        <route edges="264306385 264308375 264308383 4054057 264308376"/>
    </vehicle>
    <vehicle id="veh_mw133" type="veh_mw_passenger" depart="93.10" departLane="free" departPos="last" departSpeed="max">
        <route edges="290296351 240042212 151495040 264308374 399250313 264308373"/>
    </vehicle>
    <vehicle id="veh_mw134" type="veh_mw_passenger" depart="93.80" departLane="free" departPos="last" departSpeed="max">
        <route edges="290296351 240042212 151495040 264308374 399250313 264308373"/>
    </vehicle>
    <vehicle id="veh_mw135" type="veh_mw_passenger" depart="94.50" departLane="free" departPos="last" departSpeed="max">
        <route edges="264306385 264308375 264308383 4054057 264308376"/>
    </vehicle>
    <vehicle id="veh_mw136" type="veh_mw_passenger" depart="95.20" departLane="free" departPos="last" departSpeed="max">
        <route edges="290296351 240042212 151495040 264308374 399250313 264308373"/>
    </vehicle>
    <vehicle id="veh_mw137" type="veh_mw_passenger" depart="95.90" departLane="free" departPos="last" departSpeed="max">
        <route edges="264306385 264308375 264308383 4054057 264308376"/>
    </vehicle>
    <vehicle id="veh_mw138" type="veh_mw_passenger" depart="96.60" departLane="free" departPos="last" departSpeed="max">