<?xml version="1.0" encoding="UTF-8"?>

<!-- generated on Thu Jun  7 17:05:36 2018 by Eclipse SUMO duarouter Version bd2c4bd
<configuration xmlns:xsi="http://www.w3.org/2001/XMLSchema-instance" xsi:noNamespaceSchemaLocation="http://sumo.dlr.de/xsd/duarouterConfiguration.xsd">

    <input>
        <net-file value="osm.net.xml"/>
        <route-files value="osm.passenger.trips.xml"/>
    </input>

    <output>
        <output-file value="osm.passenger.rou.xml"/>
        <alternatives-output value="osm.passenger.rou.alt.xml"/>
    </output>

    <processing>
        <ignore-errors value="true"/>
    </processing>

    <time>
        <begin value="0"/>
        <end value="1800.0"/>
    </time>

    <report>
        <no-warnings value="true"/>
        <no-step-log value="true"/>
    </report>

</configuration>
-->

<routes xmlns:xsi="http://www.w3.org/2001/XMLSchema-instance" xsi:noNamespaceSchemaLocation="http://sumo.dlr.de/xsd/routes_file.xsd">
    <vType id="veh_passenger" speedFactor="normc(1.00,0.10,0.20,2.00)" vClass="passenger" sigma="0.8"/>
    <vehicle id="veh0" type="veh_passenger" depart="0.00" departLane="best" departPos="last" departSpeed="max">
        <route edges="290296351 240042212 151495018 222448597#0 151495017 -164719877 -164719876 -164719879"/>
    </vehicle>
    <vehicle id="veh2" type="veh_passenger" depart="2.00" departLane="best" departPos="last" departSpeed="max">
        <route edges="264306385 264308375 151495034 -256366919 24498410#0 256366925 240042192#0 151495017 -164719877 -164719876 -164719879"/>
    </vehicle>
    <vehicle id="veh3" type="veh_passenger" depart="3.00" departLane="best" departPos="last" departSpeed="max">
        <route edges="151495035#0 151495035#1 151495035#2 253109041 253109045 253109042 253109039 253109043 4935288 240042194#0 151495020 308396220 264308374 399250313 264308373"/>
    </vehicle>
    <vehicle id="veh4" type="veh_passenger" depart="4.00" departLane="best" departPos="last" departSpeed="max">
        <route edges="290296351 240042212 151495040 264308374 399250313 264308373"/>
    </vehicle>
    <vehicle id="veh5" type="veh_passenger" depart="5.00" departLane="best" departPos="last" departSpeed="max">
        <route edges="264306385 264308375 264308383 4054057 264308376"/>
    </vehicle>
    <vehicle id="veh6" type="veh_passenger" depart="6.00" departLane="best" departPos="last" departSpeed="max">
        <route edges="290296351 240042212 151495018 222448597#0 151495017 -164719877 -164719876 -164719879"/>
    </vehicle>
    <vehicle id="veh7" type="veh_passenger" depart="7.00" departLane="best" departPos="last" departSpeed="max">
        <route edges="264306385 264308375 151495034 -256366919 24498410#0 38234312 256366927"/>
    </vehicle>
    <vehicle id="veh8" type="veh_passenger" depart="8.00" departLane="best" departPos="last" departSpeed="max">
        <route edges="360414561 256366923#0 256366926#0 256366926#1 256366928#0 256366925 240042192#0 151495020 308396220 264308374 399250313 264308373"/>
    </vehicle>
    <vehicle id="veh10" type="veh_passenger" depart="10.00" departLane="best" departPos="last" departSpeed="max">
        <route edges="290296351 240042212 151495018 222448597#0 151495015 253109038 253109040 4935300#0 4935300#2"/>
    </vehicle>
    <vehicle id="veh11" type="veh_passenger" depart="11.00" departLane="best" departPos="last" departSpeed="max">
        <route edges="290296351 240042212 151495018 222448597#0 151495017 -164719877 -164719876 -164719879"/>
    </vehicle>
    <vehicle id="veh12" type="veh_passenger" depart="12.00" departLane="best" departPos="last" departSpeed="max">
        <route edges="164719879 164719876 164719877 403940535 151495016#0 151495020 308396220 264308374 399250313 264308373"/>
    </vehicle>
    <vehicle id="veh13" type="veh_passenger" depart="13.00" departLane="best" departPos="last" departSpeed="max">
        <route edges="164719879 164719876 164719877 403940535 151495016#0 151495020 308396220 264308374 399250313 264308373"/>
    </vehicle>
    <vehicle id="veh14" type="veh_passenger" depart="14.00" departLane="best" departPos="last" departSpeed="max">
        <route edges="290296351 240042212 151495040 264308374 399250313 264308373"/>
    </vehicle>
    <vehicle id="veh15" type="veh_passenger" depart="15.00" departLane="best" departPos="last" departSpeed="max">
        <route edges="264306385 264308375 264308383 4054057 264308376"/>
    </vehicle>
    <vehicle id="veh16" type="veh_passenger" depart="16.00" departLane="best" departPos="last" departSpeed="max">
        <route edges="264306385 264308375 264308383 4054057 264308376"/>
    </vehicle>
    <vehicle id="veh17" type="veh_passenger" depart="17.00" departLane="best" departPos="last" departSpeed="max">
        <route edges="8008670#0 -256366931#3 -256366931#1 -256366931#0 256366930 256366926#0 256366926#1 256366928#0 -24498410#1 256366918 24498409 4054057 264308376"/>
    </vehicle>
    <vehicle id="veh18" type="veh_passenger" depart="18.00" departLane="best" departPos="last" departSpeed="max">
        <route edges="264306385 264308375 151495034 -256366919 24498410#0 256366925 240042192#0 151495017 -164719877 -164719876 -164719879"/>
    </vehicle>
    <vehicle id="veh19" type="veh_passenger" depart="19.00" departLane="best" departPos="last" departSpeed="max">
        <route edges="264306385 264308375 264308383 4054057 264308376"/>
    </vehicle>
    <vehicle id="veh20" type="veh_passenger" depart="20.00" departLane="best" departPos="last" departSpeed="max">
        <route edges="290296351 240042212 151495040 264308374 399250313 264308373"/>
    </vehicle>
    <vehicle id="veh21" type="veh_passenger" depart="21.00" departLane="best" departPos="last" departSpeed="max">
        <route edges="290296351 240042212 151495040 264308374 399250313 264308373"/>
    </vehicle>
    <vehicle id="veh22" type="veh_passenger" depart="22.00" departLane="best" departPos="last" departSpeed="max">
        <route edges="360414561 256366923#0 256366926#0 256366926#1 256366928#0 256366925 240042192#0 151495020 308396220 264308374 399250313 264308373"/>
    </vehicle>
    <vehicle id="veh23" type="veh_passenger" depart="23.00" departLane="best" departPos="last" departSpeed="max">
        <route edges="290296351 240042212 151495040 264308374 399250313 264308373"/>
    </vehicle>
    <vehicle id="veh24" type="veh_passenger" depart="24.00" departLane="best" departPos="last" departSpeed="max">
        <route edges="8008670#0 -256366931#3 -256366931#1 -256366931#0 256366930 256366926#0 256366926#1 256366928#0 256366925 240042192#0 151495020 308396220 264308374 399250313 264308373"/>
    </vehicle>
    <vehicle id="veh25" type="veh_passenger" depart="25.00" departLane="best" departPos="last" departSpeed="max">
        <route edges="164719879 164719876 164719877 403940535 151495016#0 308396219 256366921#0 -24498410#1 256366918 24498409 4054057 264308376"/>
    </vehicle>
    <vehicle id="veh26" type="veh_passenger" depart="26.00" departLane="best" departPos="last" departSpeed="max">
        <route edges="290296351 240042212 151495040 264308374 399250313 264308373"/>
    </vehicle>
    <vehicle id="veh27" type="veh_passenger" depart="27.00" departLane="best" departPos="last" departSpeed="max">
        <route edges="164719879 164719876 164719877 403940535 151495016#0 151495020 308396220 264308374 399250313 264308373"/>
    </vehicle>
    <vehicle id="veh28" type="veh_passenger" depart="28.00" departLane="best" departPos="last" departSpeed="max">
        <route edges="8008670#0 -256366931#3 -256366931#1 -256366931#0 256366930 256366926#0 256366926#1 256366928#0 256366925 240042192#0 151495020 308396220 264308374 399250313 264308373"/>
    </vehicle>
    <vehicle id="veh29" type="veh_passenger" depart="29.00" departLane="best" departPos="last" departSpeed="max">
        <route edges="360414561 256366923#0 256366926#0 256366926#1 256366928#0 -24498410#1 256366918 24498409 4054057 264308376"/>
    </vehicle>
    <vehicle id="veh31" type="veh_passenger" depart="31.00" departLane="best" departPos="last" departSpeed="max">
        <route edges="290296351 240042212 151495040 264308374 399250313 264308373"/>
    </vehicle>
    <vehicle id="veh32" type="veh_passenger" depart="32.00" departLane="best" departPos="last" departSpeed="max">
        <route edges="264306385 264308375 264308383 4054057 264308376"/>
    </vehicle>
    <vehicle id="veh33" type="veh_passenger" depart="33.00" departLane="best" departPos="last" departSpeed="max">
        <route edges="164719879 164719876 164719877 403940535 151495016#0 151495020 308396220 264308374 399250313 264308373"/>
    </vehicle>
    <vehicle id="veh34" type="veh_passenger" depart="34.00" departLane="best" departPos="last" departSpeed="max">
        <route edges="264306385 264308375 151495034 -256366919 24498410#0 256366925 240042192#0 151495015 253109038 253109040 4935289 253109041 4935299#0 4935299#1"/>
    </vehicle>
    <vehicle id="veh35" type="veh_passenger" depart="35.00" departLane="best" departPos="last" departSpeed="max">
        <route edges="290296351 240042212 151495040 264308374 399250313 264308373"/>
    </vehicle>
    <vehicle id="veh36" type="veh_passenger" depart="36.00" departLane="best" departPos="last" departSpeed="max">
        <route edges="264306385 264308375 151495034 -256366919 24498410#0 38234312 256366927"/>
    </vehicle>
    <vehicle id="veh37" type="veh_passenger" depart="37.00" departLane="best" departPos="last" departSpeed="max">
        <route edges="360414561 256366923#0 256366926#0 256366926#1 256366928#0 -24498410#1 256366918 24498409 4054057 264308376"/>
    </vehicle>
    <vehicle id="veh38" type="veh_passenger" depart="38.00" departLane="best" departPos="last" departSpeed="max">
        <route edges="264306385 264308375 264308383 4054057 264308376"/>
    </vehicle>
    <vehicle id="veh39" type="veh_passenger" depart="39.00" departLane="best" departPos="last" departSpeed="max">
        <route edges="290296351 240042212 151495018 222448597#0 308396219 256366921#0 38234312 256366927"/>
    </vehicle>
    <vehicle id="veh40" type="veh_passenger" depart="40.00" departLane="best" departPos="last" departSpeed="max">
        <route edges="290296351 240042212 151495040 264308374 399250313 264308373"/>
    </vehicle>
    <vehicle id="veh41" type="veh_passenger" depart="41.00" departLane="best" departPos="last" departSpeed="max">
        <route edges="290296351 240042212 151495040 264308374 399250313 264308373"/>
    </vehicle>
    <vehicle id="veh44" type="veh_passenger" depart="44.00" departLane="best" departPos="last" departSpeed="max">
        <route edges="264306385 264308375 151495034 -256366919 24498410#0 256366925 240042192#0 151495017 -164719877 -164719876 -164719879"/>
    </vehicle>
    <vehicle id="veh46" type="veh_passenger" depart="46.00" departLane="best" departPos="last" departSpeed="max">
        <route edges="164719879 164719876 164719877 403940535 151495016#0 151495020 308396220 264308374 399250313 264308373"/>
    </vehicle>
    <vehicle id="veh47" type="veh_passenger" depart="47.00" departLane="best" departPos="last" departSpeed="max">
        <route edges="164719879 164719876 164719877 403940535 151495016#0 308396219 256366921#0 -24498410#1 256366918 24498409 4054057 264308376"/>
    </vehicle>
    <vehicle id="veh48" type="veh_passenger" depart="48.00" departLane="best" departPos="last" departSpeed="max">
        <route edges="290296351 240042212 151495018 222448597#0 308396219 256366921#0 38234312 256366927"/>
    </vehicle>
    <vehicle id="veh49" type="veh_passenger" depart="49.00" departLane="best" departPos="last" departSpeed="max">
        <route edges="264306385 264308375 264308383 4054057 264308376"/>
    </vehicle>
    <vehicle id="veh50" type="veh_passenger" depart="50.00" departLane="best" departPos="last" departSpeed="max">
        <route edges="8008670#0 -256366931#3 -256366931#1 -256366931#0 256366930 256366926#0 256366926#1 256366928#0 -24498410#1 256366918 24498409 4054057 264308376"/>
    </vehicle>
    <vehicle id="veh51" type="veh_passenger" depart="51.00" departLane="best" departPos="last" departSpeed="max">
        <route edges="256366925 240042192#0 151495020 308396220 264308374 399250313 264308373"/>
    </vehicle>
    <vehicle id="veh52" type="veh_passenger" depart="52.00" departLane="best" departPos="last" departSpeed="max">
        <route edges="264306385 264308375 264308383 4054057 264308376"/>
    </vehicle>
    <vehicle id="veh53" type="veh_passenger" depart="53.00" departLane="best" departPos="last" departSpeed="max">
        <route edges="164719879 164719876 164719877 403940535 151495016#0 308396219 256366921#0 -24498410#1 256366918 24498409 4054057 264308376"/>
    </vehicle>
    <vehicle id="veh54" type="veh_passenger" depart="54.00" departLane="best" departPos="last" departSpeed="max">
        <route edges="264306385 264308375 264308383 4054057 264308376"/>
    </vehicle>
    <vehicle id="veh55" type="veh_passenger" depart="55.00" departLane="best" departPos="last" departSpeed="max">
        <route edges="290296351 240042212 151495018 222448597#0 308396219 256366921#0 38234312 225981818#1 225981818#2 225981818#3 -8008670#1"/>
    </vehicle>
    <vehicle id="veh56" type="veh_passenger" depart="56.00" departLane="best" departPos="last" departSpeed="max">
        <route edges="264306385 264308375 264308383 4054057 264308376"/>
    </vehicle>
    <vehicle id="veh57" type="veh_passenger" depart="57.00" departLane="best" departPos="last" departSpeed="max">
        <route edges="264306385 264308375 151495034 -256366919 24498410#0 38234312 256366927"/>
    </vehicle>
    <vehicle id="veh58" type="veh_passenger" depart="58.00" departLane="best" departPos="last" departSpeed="max">
        <route edges="360414561 256366923#0 256366926#0 256366926#1 256366928#0 -24498410#1 256366918 24498409 4054057 264308376"/>
    </vehicle>
    <vehicle id="veh59" type="veh_passenger" depart="59.00" departLane="best" departPos="last" departSpeed="max">
        <route edges="264306385 264308375 264308383 4054057 264308376"/>
    </vehicle>
    <vehicle id="veh60" type="veh_passenger" depart="60.00" departLane="best" departPos="last" departSpeed="max">
        <route edges="290296351 240042212 151495040 264308374 399250313 264308373"/>
    </vehicle>
    <vehicle id="veh61" type="veh_passenger" depart="61.00" departLane="best" departPos="last" departSpeed="max">
        <route edges="164719879 164719876 164719877 403940535 151495016#0 151495020 308396220 264308374 399250313 264308373"/>
    </vehicle>
    <vehicle id="veh63" type="veh_passenger" depart="63.00" departLane="best" departPos="last" departSpeed="max">
        <route edges="290296351 240042212 151495040 264308374 399250313 264308373"/>
    </vehicle>
    <vehicle id="veh64" type="veh_passenger" depart="64.00" departLane="best" departPos="last" departSpeed="max">
        <route edges="264306385 264308375 264308383 4054057 264308376"/>
    </vehicle>
    <vehicle id="veh65" type="veh_passenger" depart="65.00" departLane="best" departPos="last" departSpeed="max">
        <route edges="264306385 264308375 264308383 4054057 264308376"/>
    </vehicle>
    <vehicle id="veh66" type="veh_passenger" depart="66.00" departLane="best" departPos="last" departSpeed="max">
        <route edges="290296351 240042212 151495018 222448597#0 151495017 -164719877 -164719876 -164719879"/>
    </vehicle>
    <vehicle id="veh67" type="veh_passenger" depart="67.00" departLane="best" departPos="last" departSpeed="max">
        <route edges="8008670#0 -256366931#3 -256366931#1 -256366931#0 256366930 256366926#0 256366926#1 256366928#0 -24498410#1 256366918 24498409 4054057 264308376"/>
    </vehicle>
    <vehicle id="veh68" type="veh_passenger" depart="68.00" departLane="best" departPos="last" departSpeed="max">
        <route edges="360414561 256366923#0 256366926#0 256366926#1 256366928#0 -24498410#1 256366918 24498409 4054057 264308376"/>
    </vehicle>
    <vehicle id="veh69" type="veh_passenger" depart="69.00" departLane="best" departPos="last" departSpeed="max">
        <route edges="290296351 240042212 151495018 222448597#0 308396219 256366921#0 38234312 256366927"/>
    </vehicle>
    <vehicle id="veh70" type="veh_passenger" depart="70.00" departLane="best" departPos="last" departSpeed="max">
        <route edges="264306385 264308375 151495034 -256366919 24498410#0 256366925 240042192#0 151495017 -164719877 -164719876 -164719879"/>
    </vehicle>
    <vehicle id="veh71" type="veh_passenger" depart="71.00" departLane="best" departPos="last" departSpeed="max">
        <route edges="264306385 264308375 151495034 -256366919 24498410#0 256366925 240042192#0 151495015 253109038 253109040 4935300#0 4935300#2"/>
    </vehicle>
    <vehicle id="veh72" type="veh_passenger" depart="72.00" departLane="best" departPos="last" departSpeed="max">
        <route edges="264306385 264308375 264308383 4054057 264308376"/>
    </vehicle>
    <vehicle id="veh73" type="veh_passenger" depart="73.00" departLane="best" departPos="last" departSpeed="max">
        <route edges="360414561 256366923#0 256366926#0 256366926#1 256366928#0 256366925 240042192#0 151495015 253109038 253109040 4935300#0 4935300#2"/>
    </vehicle>
    <vehicle id="veh74" type="veh_passenger" depart="74.00" departLane="best" departPos="last" departSpeed="max">
        <route edges="360414561 256366923#0 256366926#0 256366926#1 256366928#0 -24498410#1 256366918 24498409 4054057 264308376"/>
    </vehicle>
    <vehicle id="veh75" type="veh_passenger" depart="75.00" departLane="best" departPos="last" departSpeed="max">
        <route edges="164719879 164719876 164719877 403940535 151495016#0 308396219 256366921#0 -24498410#1 256366918 24498409 4054057 264308376"/>
    </vehicle>
    <vehicle id="veh76" type="veh_passenger" depart="76.00" departLane="best" departPos="last" departSpeed="max">
        <route edges="264306385 264308375 264308383 4054057 264308376"/>
    </vehicle>
    <vehicle id="veh77" type="veh_passenger" depart="77.00" departLane="best" departPos="last" departSpeed="max">
        <route edges="264306385 264308375 151495034 -256366919 24498410#0 256366925 240042192#0 151495015 253109038 253109040 4935289 253109041 4935299#0 4935299#1"/>
    </vehicle>
    <vehicle id="veh78" type="veh_passenger" depart="78.00" departLane="best" departPos="last" departSpeed="max">
        <route edges="164719879 164719876 164719877 403940535 151495016#0 308396219 256366921#0 38234312 256366927"/>
    </vehicle>
    <vehicle id="veh79" type="veh_passenger" depart="79.00" departLane="best" departPos="last" departSpeed="max">
        <route edges="264306385 264308375 151495034 -256366919 24498410#0 38234312 256366927"/>
    </vehicle>
    <vehicle id="veh80" type="veh_passenger" depart="80.00" departLane="best" departPos="last" departSpeed="max">
        <route edges="290296351 240042212 151495040 264308374 399250313 264308373"/>
    </vehicle>
    <vehicle id="veh81" type="veh_passenger" depart="81.00" departLane="best" departPos="last" departSpeed="max">
        <route edges="264306385 264308375 264308383 4054057 264308376"/>
    </vehicle>
    <vehicle id="veh82" type="veh_passenger" depart="82.00" departLane="best" departPos="last" departSpeed="max">
        <route edges="264306385 264308375 264308383 4054057 264308376"/>
    </vehicle>
    <vehicle id="veh83" type="veh_passenger" depart="83.00" departLane="best" departPos="last" departSpeed="max">
        <route edges="290296351 240042212 151495040 264308374 399250313 264308373"/>
    </vehicle>
    <vehicle id="veh84" type="veh_passenger" depart="84.00" departLane="best" departPos="last" departSpeed="max">
        <route edges="264306385 264308375 264308383 4054057 264308376"/>
    </vehicle>
    <vehicle id="veh85" type="veh_passenger" depart="85.00" departLane="best" departPos="last" departSpeed="max">
        <route edges="164719879 164719876 164719877 403940535 151495016#0 151495020 308396220 264308374 399250313 264308373"/>
    </vehicle>
    <vehicle id="veh86" type="veh_passenger" depart="86.00" departLane="best" departPos="last" departSpeed="max">
        <route edges="8008670#0 -256366931#3 -256366931#1 -256366931#0 256366930 256366926#0 256366926#1 256366928#0 256366925 240042192#0 151495015 253109038 253109040 4935300#0 4935300#2"/>
    </vehicle>
    <vehicle id="veh87" type="veh_passenger" depart="87.00" departLane="best" departPos="last" departSpeed="max">
        <route edges="164719879 164719876 164719877 403940535 151495016#0 151495020 308396220 264308374 399250313 264308373"/>
    </vehicle>
    <vehicle id="veh88" type="veh_passenger" depart="88.00" departLane="best" departPos="last" departSpeed="max">
        <route edges="264306385 264308375 264308383 4054057 264308376"/>
    </vehicle>
    <vehicle id="veh89" type="veh_passenger" depart="89.00" departLane="best" departPos="last" departSpeed="max">
        <route edges="264306385 264308375 151495034 -256366919 24498410#0 38234312 256366927"/>
    </vehicle>
    <vehicle id="veh90" type="veh_passenger" depart="90.00" departLane="best" departPos="last" departSpeed="max">
        <route edges="290296351 240042212 151495018 222448597#0 151495015 253109038 253109040 4935300#0 4935300#2"/>
    </vehicle>
    <vehicle id="veh91" type="veh_passenger" depart="91.00" departLane="best" departPos="last" departSpeed="max">
        <route edges="290296351 240042212 151495018 222448597#0 151495017 -164719877 -164719876 -164719879"/>
    </vehicle>
    <vehicle id="veh92" type="veh_passenger" depart="92.00" departLane="best" departPos="last" departSpeed="max">
        <route edges="290296351 240042212 151495040 264308374 399250313 264308373"/>
    </vehicle>
    <vehicle id="veh93" type="veh_passenger" depart="93.00" departLane="best" departPos="last" departSpeed="max">
        <route edges="26216780#0 26216780#1 253109042 253109039 253109043 4935288 240042194#0 308396219 256366921#0 38234312 256366927"/>
    </vehicle>
    <vehicle id="veh94" type="veh_passenger" depart="94.00" departLane="best" departPos="last" departSpeed="max">
        <route edges="164719879 164719876 164719877 403940535 151495016#0 151495020 308396220 264308374 399250313 264308373"/>
    </vehicle>
    <vehicle id="veh95" type="veh_passenger" depart="95.00" departLane="best" departPos="last" departSpeed="max">
        <route edges="264306385 264308375 264308383 4054057 264308376"/>
    </vehicle>
    <vehicle id="veh96" type="veh_passenger" depart="96.00" departLane="best" departPos="last" departSpeed="max">
        <route edges="290296351 240042212 151495040 264308374 399250313 264308373"/>
    </vehicle>
    <vehicle id="veh97" type="veh_passenger" depart="97.00" departLane="best" departPos="last" departSpeed="max">
        <route edges="290296351 240042212 151495040 264308374 399250313 264308373"/>
    </vehicle>
    <vehicle id="veh98" type="veh_passenger" depart="98.00" departLane="best" departPos="last" departSpeed="max">
        <route edges="264306385 264308375 264308383 4054057 264308376"/>
    </vehicle>
    <vehicle id="veh101" type="veh_passenger" depart="101.00" departLane="best" departPos="last" departSpeed="max">
        <route edges="290296351 240042212 151495040 264308374 399250313 264308373"/>
    </vehicle>
    <vehicle id="veh102" type="veh_passenger" depart="102.00" departLane="best" departPos="last" departSpeed="max">
        <route edges="290296351 240042212 151495040 264308374 399250313 264308373"/>
    </vehicle>
    <vehicle id="veh103" type="veh_passenger" depart="103.00" departLane="best" departPos="last" departSpeed="max">
        <route edges="264306385 264308375 151495034 -256366919 24498410#0 256366925 240042192#0 151495017 -164719877 -164719876 -164719879"/>
    </vehicle>
    <vehicle id="veh104" type="veh_passenger" depart="104.00" departLane="best" departPos="last" departSpeed="max">
        <route edges="164719879 164719876 164719877 403940535 151495016#0 308396219 256366921#0 -24498410#1 256366918 24498409 4054057 264308376"/>
    </vehicle>
    <vehicle id="veh105" type="veh_passenger" depart="105.00" departLane="best" departPos="last" departSpeed="max">
        <route edges="360414561 256366923#0 256366926#0 256366926#1 256366928#0 256366925 240042192#0 151495020 308396220 264308374 399250313 264308373"/>
    </vehicle>
    <vehicle id="veh106" type="veh_passenger" depart="106.00" departLane="best" departPos="last" departSpeed="max">
        <route edges="264306385 264308375 151495034 -256366919 24498410#0 38234312 256366927"/>
    </vehicle>
    <vehicle id="veh107" type="veh_passenger" depart="107.00" departLane="best" departPos="last" departSpeed="max">
        <route edges="264306385 264308375 264308383 4054057 264308376"/>
    </vehicle>
    <vehicle id="veh108" type="veh_passenger" depart="108.00" departLane="best" departPos="last" departSpeed="max">
        <route edges="360414561 256366923#0 256366926#0 256366926#1 256366928#0 256366925 240042192#0 151495020 308396220 264308374 399250313 264308373"/>
    </vehicle>
    <vehicle id="veh109" type="veh_passenger" depart="109.00" departLane="best" departPos="last" departSpeed="max">
        <route edges="264306385 264308375 151495034 -256366919 24498410#0 256366925 240042192#0 151495015 253109038 253109040 4935289 253109041 253109045 253109042 253109039"/>
    </vehicle>
    <vehicle id="veh110" type="veh_passenger" depart="110.00" departLane="best" departPos="last" departSpeed="max">
        <route edges="264306385 264308375 264308383 4054057 264308376"/>
    </vehicle>
    <vehicle id="veh111" type="veh_passenger" depart="111.00" departLane="best" departPos="last" departSpeed="max">
        <route edges="264306385 264308375 264308383 4054057 264308376"/>
    </vehicle>
    <vehicle id="veh112" type="veh_passenger" depart="112.00" departLane="best" departPos="last" departSpeed="max">
        <route edges="290296351 240042212 151495018 222448597#0 151495015 253109038 253109040 4935300#0 4935300#2"/>
    </vehicle>
    <vehicle id="veh113" type="veh_passenger" depart="113.00" departLane="best" departPos="last" departSpeed="max">
        <route edges="151495035#0 151495035#1 151495035#2 253109041 253109045 253109042 253109039 253109043 4935288 240042194#0 308396219 256366921#0 -24498410#1 256366918 24498409 4054057 264308376"/>
    </vehicle>
    <vehicle id="veh114" type="veh_passenger" depart="114.00" departLane="best" departPos="last" departSpeed="max">
        <route edges="264306385 264308375 264308383 4054057 264308376"/>
    </vehicle>
    <vehicle id="veh115" type="veh_passenger" depart="115.00" departLane="best" departPos="last" departSpeed="max">
        <route edges="290296351 240042212 151495040 264308374 399250313 264308373"/>
    </vehicle>
    <vehicle id="veh116" type="veh_passenger" depart="116.00" departLane="best" departPos="last" departSpeed="max">
        <route edges="290296351 240042212 151495018 222448597#0 308396219 256366921#0 38234312 256366927"/>
    </vehicle>
    <vehicle id="veh117" type="veh_passenger" depart="117.00" departLane="best" departPos="last" departSpeed="max">
        <route edges="264306385 264308375 264308383 4054057 264308376"/>
    </vehicle>
    <vehicle id="veh118" type="veh_passenger" depart="118.00" departLane="best" departPos="last" departSpeed="max">
        <route edges="290296351 240042212 151495040 264308374 399250313 264308373"/>
    </vehicle>
    <vehicle id="veh119" type="veh_passenger" depart="119.00" departLane="best" departPos="last" departSpeed="max">
        <route edges="151495035#0 151495035#1 151495035#2 253109041 253109045 253109042 253109039 253109043 4935288 240042194#0 151495020 308396220 264308374 399250313 264308373"/>
    </vehicle>
    <vehicle id="veh120" type="veh_passenger" depart="120.00" departLane="best" departPos="last" departSpeed="max">
        <route edges="264306385 264308375 264308383 4054057 264308376"/>
    </vehicle>
    <vehicle id="veh121" type="veh_passenger" depart="121.00" departLane="best" departPos="last" departSpeed="max">
        <route edges="360414561 256366923#0 256366926#0 256366926#1 256366928#0 256366925 240042192#0 151495020 308396220 264308374 399250313 264308373"/>
    </vehicle>
    <vehicle id="veh122" type="veh_passenger" depart="122.00" departLane="best" departPos="last" departSpeed="max">
        <route edges="290296351 240042212 151495040 264308374 399250313 264308373"/>
    </vehicle>
    <vehicle id="veh123" type="veh_passenger" depart="123.00" departLane="best" departPos="last" departSpeed="max">
        <route edges="360414561 256366923#0 256366926#0 256366926#1 256366928#0 256366925 240042192#0 151495020 308396220 264308374 399250313 264308373"/>
    </vehicle>
    <vehicle id="veh124" type="veh_passenger" depart="124.00" departLane="best" departPos="last" departSpeed="max">
        <route edges="360414561 256366923#0 256366926#0 256366926#1 256366928#0 256366925 240042192#0 151495020 308396220 264308374 399250313 264308373"/>
    </vehicle>
    <vehicle id="veh125" type="veh_passenger" depart="125.00" departLane="best" departPos="last" departSpeed="max">
        <route edges="164719879 164719876 164719877 403940535 151495016#0 151495020 308396220 264308374 399250313 264308373"/>
    </vehicle>
    <vehicle id="veh126" type="veh_passenger" depart="126.00" departLane="best" departPos="last" departSpeed="max">
        <route edges="290296351 240042212 151495040 264308374 399250313 264308373"/>
    </vehicle>
    <vehicle id="veh127" type="veh_passenger" depart="127.00" departLane="best" departPos="last" departSpeed="max">
        <route edges="290296351 240042212 151495040 264308374 399250313 264308373"/>
    </vehicle>
    <vehicle id="veh128" type="veh_passenger" depart="128.00" departLane="best" departPos="last" departSpeed="max">
        <route edges="264306385 264308375 264308383 4054057 264308376"/>
    </vehicle>