<?xml version="1.0" encoding="UTF-8"?>

<!-- generated on Thu Jun  7 17:05:37 2018 by Eclipse SUMO duarouter Version bd2c4bd
<configuration xmlns:xsi="http://www.w3.org/2001/XMLSchema-instance" xsi:noNamespaceSchemaLocation="http://sumo.dlr.de/xsd/duarouterConfiguration.xsd">

    <input>
        <net-file value="osm.net.xml"/>
        <route-files value="osm.truck_mw.trips.xml"/>
    </input>

    <output>
        <output-file value="osm.truck_mw.rou.xml"/>
        <alternatives-output value="osm.truck_mw.rou.alt.xml"/>
    </output>

    <processing>
        <ignore-errors value="true"/>
    </processing>

    <time>
        <begin value="0"/>
        <end value="1800.0"/>
    </time>

    <report>
        <no-warnings value="true"/>
        <no-step-log value="true"/>
    </report>

</configuration>
-->

<routes xmlns:xsi="http://www.w3.org/2001/XMLSchema-instance" xsi:noNamespaceSchemaLocation="http://sumo.dlr.de/xsd/routes_file.xsd">
    <vType id="truck_mw_truck" speedFactor="normc(1.00,0.10,0.20,2.00)" vClass="truck" sigma="0.8"/>
    <vehicle id="truck_mw0" type="truck_mw_truck" depart="0.00" departLane="free" departPos="last" departSpeed="max">
        <route edges="290296351 240042212 151495040 264308374 399250313 264308373"/>
    </vehicle>
    <vehicle id="truck_mw1" type="truck_mw_truck" depart="4.00" departLane="free" departPos="last" departSpeed="max">
        <route edges="290296351 240042212 151495040 264308374 399250313 264308373"/>
    </vehicle>
    <vehicle id="truck_mw2" type="truck_mw_truck" depart="8.00" departLane="free" departPos="last" departSpeed="max">
        <route edges="264306385 264308375 264308383 4054057 264308376"/>
    </vehicle>
    <vehicle id="truck_mw3" type="truck_mw_truck" depart="12.00" departLane="free" departPos="last" departSpeed="max">
        <route edges="264306385 264308375 264308383 4054057 264308376"/>
    </vehicle>
    <vehicle id="truck_mw4" type="truck_mw_truck" depart="16.00" departLane="free" departPos="last" departSpeed="max">
        <route edges="290296351 240042212 151495040 264308374 399250313 264308373"/>
    </vehicle>
    <vehicle id="truck_mw5" type="truck_mw_truck" depart="20.00" departLane="free" departPos="last" departSpeed="max">
        <route edges="290296351 240042212 151495040 264308374 399250313 264308373"/>
    </vehicle>
    <vehicle id="truck_mw6" type="truck_mw_truck" depart="24.00" departLane="free" departPos="last" departSpeed="max">
        <route edges="264306385 264308375 264308383 4054057 264308376"/>
    </vehicle>
    <vehicle id="truck_mw7" type="truck_mw_truck" depart="28.00" departLane="free" departPos="last" departSpeed="max">
        <route edges="290296351 240042212 151495040 264308374 399250313 264308373"/>
    </vehicle>
    <vehicle id="truck_mw8" type="truck_mw_truck" depart="32.00" departLane="free" departPos="last" departSpeed="max">
        <route edges="290296351 240042212 151495040 264308374 399250313 264308373"/>
    </vehicle>
    <vehicle id="truck_mw9" type="truck_mw_truck" depart="36.00" departLane="free" departPos="last" departSpeed="max">
        <route edges="264306385 264308375 264308383 4054057 264308376"/>
    </vehicle>
    <vehicle id="truck_mw10" type="truck_mw_truck" depart="40.00" departLane="free" departPos="last" departSpeed="max">
        <route edges="264306385 264308375 264308383 4054057 264308376"/>
    </vehicle>
    <vehicle id="truck_mw11" type="truck_mw_truck" depart="44.00" departLane="free" departPos="last" departSpeed="max">
        <route edges="264306385 264308375 264308383 4054057 264308376"/>
    </vehicle>
    <vehicle id="truck_mw12" type="truck_mw_truck" depart="48.00" departLane="free" departPos="last" departSpeed="max">
        <route edges="290296351 240042212 151495040 264308374 399250313 264308373"/>
    </vehicle>
    <vehicle id="truck_mw13" type="truck_mw_truck" depart="52.00" departLane="free" departPos="last" departSpeed="max">
        <route edges="290296351 240042212 151495040 264308374 399250313 264308373"/>
    </vehicle>
    <vehicle id="truck_mw14" type="truck_mw_truck" depart="56.00" departLane="free" departPos="last" departSpeed="max">
        <route edges="290296351 240042212 151495040 264308374 399250313 264308373"/>
    </vehicle>
    <vehicle id="truck_mw15" type="truck_mw_truck" depart="60.00" departLane="free" departPos="last" departSpeed="max">
        <route edges="290296351 240042212 151495040 264308374 399250313 264308373"/>
    </vehicle>
    <vehicle id="truck_mw16" type="truck_mw_truck" depart="64.00" departLane="free" departPos="last" departSpeed="max">
        <route edges="264306385 264308375 264308383 4054057 264308376"/>
    </vehicle>
    <vehicle id="truck_mw17" type="truck_mw_truck" depart="68.00" departLane="free" departPos="last" departSpeed="max">
        <route edges="290296351 240042212 151495040 264308374 399250313 264308373"/>
    </vehicle>
    <vehicle id="truck_mw18" type="truck_mw_truck" depart="72.00" departLane="free" departPos="last" departSpeed="max">
        <route edges="264306385 264308375 264308383 4054057 264308376"/>
    </vehicle>
    <vehicle id="truck_mw19" type="truck_mw_truck" depart="76.00" departLane="free" departPos="last" departSpeed="max">
        <route edges="264306385 264308375 264308383 4054057 264308376"/>
    </vehicle>
    <vehicle id="truck_mw20" type="truck_mw_truck" depart="80.00" departLane="free" departPos="last" departSpeed="max">
        <route edges="264306385 264308375 264308383 4054057 264308376"/>
    </vehicle>
    <vehicle id="truck_mw21" type="truck_mw_truck" depart="84.00" departLane="free" departPos="last" departSpeed="max">
        <route edges="290296351 240042212 151495040 264308374 399250313 264308373"/>
    </vehicle>
    <vehicle id="truck_mw23" type="truck_mw_truck" depart="92.00" departLane="free" departPos="last" departSpeed="max">
        <route edges="264306385 264308375 264308383 4054057 264308376"/>
    </vehicle>
    <vehicle id="truck_mw24" type="truck_mw_truck" depart="96.00" departLane="free" departPos="last" departSpeed="max">
        <route edges="290296351 240042212 151495040 264308374 399250313 264308373"/>
    </vehicle>
    <vehicle id="truck_mw25" type="truck_mw_truck" depart="100.00" departLane="free" departPos="last" departSpeed="max">
        <route edges="240042212 151495040 264308374 399250313 264308373"/>
    </vehicle>
    <vehicle id="truck_mw26" type="truck_mw_truck" depart="104.00" departLane="free" departPos="last" departSpeed="max">
        <route edges="264306385 264308375 264308383 4054057 264308376"/>
    </vehicle>
    <vehicle id="truck_mw27" type="truck_mw_truck" depart="108.00" departLane="free" departPos="last" departSpeed="max">
        <route edges="264306385 264308375 264308383 4054057 264308376"/>
    </vehicle>
    <vehicle id="truck_mw28" type="truck_mw_truck" depart="112.00" departLane="free" departPos="last" departSpeed="max">
        <route edges="290296351 240042212 151495040 264308374 399250313 264308373"/>
    </vehicle>
    <vehicle id="truck_mw29" type="truck_mw_truck" depart="116.00" departLane="free" departPos="last" departSpeed="max">
        <route edges="264306385 264308375 264308383 4054057 264308376"/>
    </vehicle>
    <vehicle id="truck_mw30" type="truck_mw_truck" depart="120.00" departLane="free" departPos="last" departSpeed="max">
        <route edges="264306385 264308375 264308383 4054057 264308376"/>
    </vehicle>
    <vehicle id="truck_mw31" type="truck_mw_truck" depart="124.00" departLane="free" departPos="last" departSpeed="max">
        <route edges="264306385 264308375 264308383 4054057 264308376"/>
    </vehicle>
    <vehicle id="truck_mw32" type="truck_mw_truck" depart="128.00" departLane="free" departPos="last" departSpeed="max">
        <route edges="264306385 264308375 264308383 4054057 264308376"/>
    </vehicle>
    <vehicle id="truck_mw33" type="truck_mw_truck" depart="132.00" departLane="free" departPos="last" departSpeed="max">
        <route edges="264306385 264308375 264308383 4054057 264308376"/>
    </vehicle>
    <vehicle id="truck_mw34" type="truck_mw_truck" depart="136.00" departLane="free" departPos="last" departSpeed="max">
        <route edges="264306385 264308375 264308383 4054057 264308376"/>
    </vehicle>
    <vehicle id="truck_mw35" type="truck_mw_truck" depart="140.00" departLane="free" departPos="last" departSpeed="max">
        <route edges="290296351 240042212 151495040 264308374 399250313 264308373"/>
    </vehicle>
    <vehicle id="truck_mw36" type="truck_mw_truck" depart="144.00" departLane="free" departPos="last" departSpeed="max">
        <route edges="264306385 264308375 264308383 4054057 264308376"/>
    </vehicle>
    <vehicle id="truck_mw37" type="truck_mw_truck" depart="148.00" departLane="free" departPos="last" departSpeed="max">
        <route edges="264306385 264308375 264308383 4054057 264308376"/>
    </vehicle>
    <vehicle id="truck_mw38" type="truck_mw_truck" depart="152.00" departLane="free" departPos="last" departSpeed="max">
        <route edges="290296351 240042212 151495040 264308374 399250313 264308373"/>
    </vehicle>
    <vehicle id="truck_mw39" type="truck_mw_truck" depart="156.00" departLane="free" departPos="last" departSpeed="max">
        <route edges="290296351 240042212 151495040 264308374 399250313 264308373"/>
    </vehicle>
    <vehicle id="truck_mw40" type="truck_mw_truck" depart="160.00" departLane="free" departPos="last" departSpeed="max">
        <route edges="290296351 240042212 151495040 264308374 399250313 264308373"/>
    </vehicle>
    <vehicle id="truck_mw41" type="truck_mw_truck" depart="164.00" departLane="free" departPos="last" departSpeed="max">
        <route edges="264306385 264308375 264308383 4054057 264308376"/>
    </vehicle>
    <vehicle id="truck_mw42" type="truck_mw_truck" depart="168.00" departLane="free" departPos="last" departSpeed="max">
        <route edges="264306385 264308375 264308383 4054057 264308376"/>
    </vehicle>
    <vehicle id="truck_mw43" type="truck_mw_truck" depart="172.00" departLane="free" departPos="last" departSpeed="max">
        <route edges="290296351 240042212 151495040 264308374 399250313 264308373"/>
    </vehicle>
    <vehicle id="truck_mw45" type="truck_mw_truck" depart="180.00" departLane="free" departPos="last" departSpeed="max">
        <route edges="290296351 240042212 151495040 264308374 399250313 264308373"/>
    </vehicle>
    <vehicle id="truck_mw46" type="truck_mw_truck" depart="184.00" departLane="free" departPos="last" departSpeed="max">
        <route edges="264306385 264308375 264308383 4054057 264308376"/>
    </vehicle>
    <vehicle id="truck_mw47" type="truck_mw_truck" depart="188.00" departLane="free" departPos="last" departSpeed="max">
        <route edges="264306385 264308375 264308383 4054057 264308376"/>
    </vehicle>
    <vehicle id="truck_mw48" type="truck_mw_truck" depart="192.00" departLane="free" departPos="last" departSpeed="max">
        <route edges="264306385 264308375 264308383 4054057 264308376"/>
    </vehicle>
    <vehicle id="truck_mw49" type="truck_mw_truck" depart="196.00" departLane="free" departPos="last" departSpeed="max">
        <route edges="264306385 264308375 264308383 4054057 264308376"/>
    </vehicle>
    <vehicle id="truck_mw50" type="truck_mw_truck" depart="200.00" departLane="free" departPos="last" departSpeed="max">
        <route edges="290296351 240042212 151495040 264308374 399250313 264308373"/>
    </vehicle>
    <vehicle id="truck_mw51" type="truck_mw_truck" depart="204.00" departLane="free" departPos="last" departSpeed="max">
        <route edges="264306385 264308375 264308383 4054057 264308376"/>
    </vehicle>
    <vehicle id="truck_mw52" type="truck_mw_truck" depart="208.00" departLane="free" departPos="last" departSpeed="max">
        <route edges="264306385 264308375 264308383 4054057 264308376"/>
    </vehicle>
    <vehicle id="truck_mw53" type="truck_mw_truck" depart="212.00" departLane="free" departPos="last" departSpeed="max">
        <route edges="290296351 240042212 151495040 264308374 399250313 264308373"/>
    </vehicle>
    <vehicle id="truck_mw54" type="truck_mw_truck" depart="216.00" departLane="free" departPos="last" departSpeed="max">
        <route edges="264306385 264308375 264308383 4054057 264308376"/>
    </vehicle>
    <vehicle id="truck_mw55" type="truck_mw_truck" depart="220.00" departLane="free" departPos="last" departSpeed="max">
        <route edges="264306385 264308375 264308383 4054057 264308376"/>
    </vehicle>
    <vehicle id="truck_mw56" type="truck_mw_truck" depart="224.00" departLane="free" departPos="last" departSpeed="max">
        <route edges="290296351 240042212 151495040 264308374 399250313 264308373"/>
    </vehicle>
    <vehicle id="truck_mw57" type="truck_mw_truck" depart="228.00" departLane="free" departPos="last" departSpeed="max">
        <route edges="290296351 240042212 151495040 264308374 399250313 264308373"/>
    </vehicle>
    <vehicle id="truck_mw58" type="truck_mw_truck" depart="232.00" departLane="free" departPos="last" departSpeed="max">
        <route edges="264306385 264308375 264308383 4054057 264308376"/>
    </vehicle>
    <vehicle id="truck_mw59" type="truck_mw_truck" depart="236.00" departLane="free" departPos="last" departSpeed="max">
        <route edges="264306385 264308375 264308383 4054057 264308376"/>
    </vehicle>
    <vehicle id="truck_mw60" type="truck_mw_truck" depart="240.00" departLane="free" departPos="last" departSpeed="max">
        <route edges="290296351 240042212 151495040 264308374 399250313 264308373"/>
    </vehicle>
    <vehicle id="truck_mw61" type="truck_mw_truck" depart="244.00" departLane="free" departPos="last" departSpeed="max">
        <route edges="290296351 240042212 151495040 264308374 399250313 264308373"/>
    </vehicle>
    <vehicle id="truck_mw62" type="truck_mw_truck" depart="248.00" departLane="free" departPos="last" departSpeed="max">
        <route edges="264306385 264308375 264308383 4054057 264308376"/>
    </vehicle>
    <vehicle id="truck_mw63" type="truck_mw_truck" depart="252.00" departLane="free" departPos="last" departSpeed="max">
        <route edges="290296351 240042212 151495040 264308374 399250313 264308373"/>
    </vehicle>
    <vehicle id="truck_mw64" type="truck_mw_truck" depart="256.00" departLane="free" departPos="last" departSpeed="max">
        <route edges="264306385 264308375 264308383 4054057 264308376"/>
    </vehicle>
    <vehicle id="truck_mw65" type="truck_mw_truck" depart="260.00" departLane="free" departPos="last" departSpeed="max">
        <route edges="290296351 240042212 151495040 264308374 399250313 264308373"/>
    </vehicle>
    <vehicle id="truck_mw66" type="truck_mw_truck" depart="264.00" departLane="free" departPos="last" departSpeed="max">
        <route edges="264306385 264308375 264308383 4054057 264308376"/>
    </vehicle>
    <vehicle id="truck_mw67" type="truck_mw_truck" depart="268.00" departLane="free" departPos="last" departSpeed="max">
        <route edges="264306385 264308375 264308383 4054057 264308376"/>
    </vehicle>
    <vehicle id="truck_mw68" type="truck_mw_truck" depart="272.00" departLane="free" departPos="last" departSpeed="max">
        <route edges="290296351 240042212 151495040 264308374 399250313 264308373"/>
    </vehicle>
    <vehicle id="truck_mw69" type="truck_mw_truck" depart="276.00" departLane="free" departPos="last" departSpeed="max">
        <route edges="264306385 264308375 264308383 4054057 264308376"/>
    </vehicle>
    <vehicle id="truck_mw70" type="truck_mw_truck" depart="280.00" departLane="free" departPos="last" departSpeed="max">
        <route edges="264306385 264308375 264308383 4054057 264308376"/>
    </vehicle>
    <vehicle id="truck_mw71" type="truck_mw_truck" depart="284.00" departLane="free" departPos="last" departSpeed="max">
        <route edges="264306385 264308375 264308383 4054057 264308376"/>
    </vehicle>
    <vehicle id="truck_mw72" type="truck_mw_truck" depart="288.00" departLane="free" departPos="last" departSpeed="max">
        <route edges="264306385 264308375 264308383 4054057 264308376"/>
    </vehicle>
    <vehicle id="truck_mw73" type="truck_mw_truck" depart="292.00" departLane="free" departPos="last" departSpeed="max">
        <route edges="290296351 240042212 151495040 264308374 399250313 264308373"/>
    </vehicle>
    <vehicle id="truck_mw74" type="truck_mw_truck" depart="296.00" departLane="free" departPos="last" departSpeed="max">
        <route edges="290296351 240042212 151495040 264308374 399250313 264308373"/>
    </vehicle>
    <vehicle id="truck_mw75" type="truck_mw_truck" depart="300.00" departLane="free" departPos="last" departSpeed="max">
        <route edges="264306385 264308375 264308383 4054057 264308376"/>
    </vehicle>
    <vehicle id="truck_mw76" type="truck_mw_truck" depart="304.00" departLane="free" departPos="last" departSpeed="max">
        <route edges="290296351 240042212 151495040 264308374 399250313 264308373"/>
    </vehicle>
    <vehicle id="truck_mw77" type="truck_mw_truck" depart="308.00" departLane="free" departPos="last" departSpeed="max">
        <route edges="264306385 264308375 264308383 4054057 264308376"/>
    </vehicle>
    <vehicle id="truck_mw78" type="truck_mw_truck" depart="312.00" departLane="free" departPos="last" departSpeed="max">
        <route edges="290296351 240042212 151495040 264308374 399250313 264308373"/>
    </vehicle>
    <vehicle id="truck_mw79" type="truck_mw_truck" depart="316.00" departLane="free" departPos="last" departSpeed="max">
        <route edges="290296351 240042212 151495040 264308374 399250313 264308373"/>
    </vehicle>
    <vehicle id="truck_mw80" type="truck_mw_truck" depart="320.00" departLane="free" departPos="last" departSpeed="max">
        <route edges="290296351 240042212 151495040 264308374 399250313 264308373"/>
    </vehicle>
    <vehicle id="truck_mw81" type="truck_mw_truck" depart="324.00" departLane="free" departPos="last" departSpeed="max">
        <route edges="290296351 240042212 151495040 264308374 399250313 264308373"/>
    </vehicle>
    <vehicle id="truck_mw82" type="truck_mw_truck" depart="328.00" departLane="free" departPos="last" departSpeed="max">
        <route edges="290296351 240042212 151495040 264308374 399250313 264308373"/>
    </vehicle>
    <vehicle id="truck_mw83" type="truck_mw_truck" depart="332.00" departLane="free" departPos="last" departSpeed="max">
        <route edges="290296351 240042212 151495040 264308374 399250313 264308373"/>
    </vehicle>
    <vehicle id="truck_mw84" type="truck_mw_truck" depart="336.00" departLane="free" departPos="last" departSpeed="max">
        <route edges="264306385 264308375 264308383 4054057 264308376"/>
    </vehicle>
    <vehicle id="truck_mw85" type="truck_mw_truck" depart="340.00" departLane="free" departPos="last" departSpeed="max">
        <route edges="264306385 264308375 264308383 4054057 264308376"/>
    </vehicle>
    <vehicle id="truck_mw86" type="truck_mw_truck" depart="344.00" departLane="free" departPos="last" departSpeed="max">
        <route edges="264306385 264308375 264308383 4054057 264308376"/>
    </vehicle>
    <vehicle id="truck_mw87" type="truck_mw_truck" depart="348.00" departLane="free" departPos="last" departSpeed="max">
        <route edges="290296351 240042212 151495040 264308374 399250313 264308373"/>
    </vehicle>
    <vehicle id="truck_mw88" type="truck_mw_truck" depart="352.00" departLane="free" departPos="last" departSpeed="max">
        <route edges="264306385 264308375 264308383 4054057 264308376"/>
    </vehicle>
    <vehicle id="truck_mw89" type="truck_mw_truck" depart="356.00" departLane="free" departPos="last" departSpeed="max">
        <route edges="290296351 240042212 151495040 264308374 399250313 264308373"/>
    </vehicle>
    <vehicle id="truck_mw90" type="truck_mw_truck" depart="360.00" departLane="free" departPos="last" departSpeed="max">
        <route edges="264306385 264308375 264308383 4054057 264308376"/>
    </vehicle>
    <vehicle id="truck_mw91" type="truck_mw_truck" depart="364.00" departLane="free" departPos="last" departSpeed="max">
        <route edges="151495040 264308374 399250313 264308373"/>
    </vehicle>
    <vehicle id="truck_mw92" type="truck_mw_truck" depart="368.00" departLane="free" departPos="last" departSpeed="max">
        <route edges="264306385 264308375 264308383 4054057 264308376"/>
    </vehicle>
    <vehicle id="truck_mw93" type="truck_mw_truck" depart="372.00" departLane="free" departPos="last" departSpeed="max">
        <route edges="290296351 240042212 151495040 264308374 399250313 264308373"/>
    </vehicle>
    <vehicle id="truck_mw94" type="truck_mw_truck" depart="376.00" departLane="free" departPos="last" departSpeed="max">
        <route edges="264306385 264308375 264308383 4054057 264308376"/>
    </vehicle>
    <vehicle id="truck_mw95" type="truck_mw_truck" depart="380.00" departLane="free" departPos="last" departSpeed="max">
        <route edges="290296351 240042212 151495040 264308374 399250313 264308373"/>
    </vehicle>
    <vehicle id="truck_mw96" type="truck_mw_truck" depart="384.00" departLane="free" departPos="last" departSpeed="max">
        <route edges="264306385 264308375 264308383 4054057 264308376"/>
    </vehicle>
    <vehicle id="truck_mw97" type="truck_mw_truck" depart="388.00" departLane="free" departPos="last" departSpeed="max">
        <route edges="290296351 240042212 151495040 264308374 399250313 264308373"/>
    </vehicle>
    <vehicle id="truck_mw98" type="truck_mw_truck" depart="392.00" departLane="free" departPos="last" departSpeed="max">
        <route edges="290296351 240042212 151495040 264308374 399250313 264308373"/>
    </vehicle>
    <vehicle id="truck_mw99" type="truck_mw_truck" depart="396.00" departLane="free" departPos="last" departSpeed="max">
        <route edges="290296351 240042212 151495040 264308374 399250313 264308373"/>
    </vehicle>
    <vehicle id="truck_mw100" type="truck_mw_truck" depart="400.00" departLane="free" departPos="last" departSpeed="max">
        <route edges="264306385 264308375 264308383 4054057 264308376"/>
    </vehicle>
    <vehicle id="truck_mw101" type="truck_mw_truck" depart="404.00" departLane="free" departPos="last" departSpeed="max">
        <route edges="264306385 264308375 264308383 4054057 264308376"/>
    </vehicle>
    <vehicle id="truck_mw102" type="truck_mw_truck" depart="408.00" departLane="free" departPos="last" departSpeed="max">
        <route edges="290296351 240042212 151495040 264308374 399250313 264308373"/>
    </vehicle>
    <vehicle id="truck_mw103" type="truck_mw_truck" depart="412.00" departLane="free" departPos="last" departSpeed="max">
        <route edges="264306385 264308375 264308383 4054057 264308376"/>
    </vehicle>
    <vehicle id="truck_mw104" type="truck_mw_truck" depart="416.00" departLane="free" departPos="last" departSpeed="max">
        <route edges="290296351 240042212 151495040 264308374 399250313 264308373"/>
    </vehicle>
    <vehicle id="truck_mw105" type="truck_mw_truck" depart="420.00" departLane="free" departPos="last" departSpeed="max">
        <route edges="264306385 264308375 264308383 4054057 264308376"/>
    </vehicle>
    <vehicle id="truck_mw106" type="truck_mw_truck" depart="424.00" departLane="free" departPos="last" departSpeed="max">
        <route edges="264306385 264308375 264308383 4054057 264308376"/>
    </vehicle>
    <vehicle id="truck_mw107" type="truck_mw_truck" depart="428.00" departLane="free" departPos="last" departSpeed="max">
        <route edges="264306385 264308375 264308383 4054057 264308376"/>
    </vehicle>
    <vehicle id="truck_mw108" type="truck_mw_truck" depart="432.00" departLane="free" departPos="last" departSpeed="max">
        <route edges="290296351 240042212 151495040 264308374 399250313 264308373"/>
    </vehicle>
    <vehicle id="truck_mw109" type="truck_mw_truck" depart="436.00" departLane="free" departPos="last" departSpeed="max">
        <route edges="290296351 240042212 151495040 264308374 399250313 264308373"/>
    </vehicle>
    <vehicle id="truck_mw110" type="truck_mw_truck" depart="440.00" departLane="free" departPos="last" departSpeed="max">
        <route edges="264306385 264308375 264308383 4054057 264308376"/>
    </vehicle>
    <vehicle id="truck_mw111" type="truck_mw_truck" depart="444.00" departLane="free" departPos="last" departSpeed="max">
        <route edges="290296351 240042212 151495040 264308374 399250313 264308373"/>
    </vehicle>
    <vehicle id="truck_mw112" type="truck_mw_truck" depart="448.00" departLane="free" departPos="last" departSpeed="max">
        <route edges="264306385 264308375 264308383 4054057 264308376"/>
    </vehicle>
    <vehicle id="truck_mw113" type="truck_mw_truck" depart="452.00" departLane="free" departPos="last" departSpeed="max">
        <route edges="264306385 264308375 264308383 4054057 264308376"/>
    </vehicle>
    <vehicle id="truck_mw114" type="truck_mw_truck" depart="456.00" departLane="free" departPos="last" departSpeed="max">
        <route edges="264306385 264308375 264308383 4054057 264308376"/>
    </vehicle>
    <vehicle id="truck_mw115" type="truck_mw_truck" depart="460.00" departLane="free" departPos="last" departSpeed="max">
        <route edges="264306385 264308375 264308383 4054057 264308376"/>
    </vehicle>
    <vehicle id="truck_mw116" type="truck_mw_truck" depart="464.00" departLane="free" departPos="last" departSpeed="max">
        <route edges="264306385 264308375 264308383 4054057 264308376"/>
    </vehicle>
    <vehicle id="truck_mw117" type="truck_mw_truck" depart="468.00" departLane="free" departPos="last" departSpeed="max">
        <route edges="290296351 240042212 151495040 264308374 399250313 264308373"/>
    </vehicle>
    <vehicle id="truck_mw118" type="truck_mw_truck" depart="472.00" departLane="free" departPos="last" departSpeed="max">
        <route edges="264306385 264308375 264308383 4054057 264308376"/>
    </vehicle>
    <vehicle id="truck_mw119" type="truck_mw_truck" depart="476.00" departLane="free" departPos="last" departSpeed="max">
        <route edges="264306385 264308375 264308383 4054057 264308376"/>
    </vehicle>
    <vehicle id="truck_mw120" type="truck_mw_truck" depart="480.00" departLane="free" departPos="last" departSpeed="max">
        <route edges="290296351 240042212 151495040 264308374 399250313 264308373"/>
    </vehicle>
    <vehicle id="truck_mw121" type="truck_mw_truck" depart="484.00" departLane="free" departPos="last" departSpeed="max">
        <route edges="264306385 264308375 264308383 4054057 264308376"/>
    </vehicle>
    <vehicle id="truck_mw123" type="truck_mw_truck" depart="492.00" departLane="free" departPos="last" departSpeed="max">
        <route edges="290296351 240042212 151495040 264308374 399250313 264308373"/>
    </vehicle>
    <vehicle id="truck_mw124" type="truck_mw_truck" depart="496.00" departLane="free" departPos="last" departSpeed="max">
        <route edges="264306385 264308375 264308383 4054057 264308376"/>
    </vehicle>
    <vehicle id="truck_mw125" type="truck_mw_truck" depart="500.00" departLane="free" departPos="last" departSpeed="max">
        <route edges="290296351 240042212 151495040 264308374 399250313 264308373"/>
    </vehicle>
    <vehicle id="truck_mw126" type="truck_mw_truck" depart="504.00" departLane="free" departPos="last" departSpeed="max">
        <route edges="264306385 264308375 264308383 4054057 264308376"/>
    </vehicle>
    <vehicle id="truck_mw127" type="truck_mw_truck" depart="508.00" departLane="free" departPos="last" departSpeed="max">
        <route edges="290296351 240042212 151495040 264308374 399250313 264308373"/>
    </vehicle>
    <vehicle id="truck_mw128" type="truck_mw_truck" depart="512.00" departLane="free" departPos="last" departSpeed="max">
        <route edges="264306385 264308375 264308383 4054057 264308376"/>
    </vehicle>
    <vehicle id="truck_mw129" type="truck_mw_truck" depart="516.00" departLane="free" departPos="last" departSpeed="max">
        <route edges="290296351 240042212 151495040 264308374 399250313 264308373"/>
    </vehicle>
    <vehicle id="truck_mw130" type="truck_mw_truck" depart="520.00" departLane="free" departPos="last" departSpeed="max">
        <route edges="290296351 240042212 151495040 264308374 399250313 264308373"/>
    </vehicle>
    <vehicle id="truck_mw131" type="truck_mw_truck" depart="524.00" departLane="free" departPos="last" departSpeed="max">
        <route edges="264306385 264308375 264308383 4054057 264308376"/>
    </vehicle>
    <vehicle id="truck_mw132" type="truck_mw_truck" depart="528.00" departLane="free" departPos="last" departSpeed="max">
        <route edges="264306385 264308375 264308383 4054057 264308376"/>
    </vehicle>
    <vehicle id="truck_mw133" type="truck_mw_truck" depart="532.00" departLane="free" departPos="last" departSpeed="max">
        <route edges="290296351 240042212 151495040 264308374 399250313 264308373"/>
    </vehicle>
    <vehicle id="truck_mw134" type="truck_mw_truck" depart="536.00" departLane="free" departPos="last" departSpeed="max">
        <route edges="290296351 240042212 151495040 264308374 399250313 264308373"/>
    </vehicle>
    <vehicle id="truck_mw135" type="truck_mw_truck" depart="540.00" departLane="free" departPos="last" departSpeed="max">
        <route edges="264306385 264308375 264308383 4054057 264308376"/>
    </vehicle>
    <vehicle id="truck_mw136" type="truck_mw_truck" depart="544.00" departLane="free" departPos="last" departSpeed="max">
        <route edges="290296351 240042212 151495040 264308374 399250313 264308373"/>
    </vehicle>
    <vehicle id="truck_mw137" type="truck_mw_truck" depart="548.00" departLane="free" departPos="last" departSpeed="max">
        <route edges="264306385 264308375 264308383 4054057 264308376"/>
    </vehicle>