<?xml version="1.0" encoding="UTF-8"?>

<!-- generated on Thu Jun  7 17:05:39 2018 by Eclipse SUMO duarouter Version bd2c4bd
<configuration xmlns:xsi="http://www.w3.org/2001/XMLSchema-instance" xsi:noNamespaceSchemaLocation="http://sumo.dlr.de/xsd/duarouterConfiguration.xsd">

    <input>
        <net-file value="osm.net.xml"/>
        <route-files value="osm.truck_mwb.trips.xml"/>
    </input>

    <output>
        <output-file value="osm.truck_mwb.rou.xml"/>
        <alternatives-output value="osm.truck_mwb.rou.alt.xml"/>
    </output>

    <processing>
        <ignore-errors value="true"/>
    </processing>

    <time>
        <begin value="100.0"/>
        <end value="1800.0"/>
    </time>

    <report>
        <no-warnings value="true"/>
        <no-step-log value="true"/>
    </report>

</configuration>
-->

<routes xmlns:xsi="http://www.w3.org/2001/XMLSchema-instance" xsi:noNamespaceSchemaLocation="http://sumo.dlr.de/xsd/routes_file.xsd">
    <vType id="truck_mwb_truck" speedFactor="normc(1.00,0.10,0.20,2.00)" vClass="truck" sigma="0.8"/>
    <vehicle id="truck_mwb0" type="truck_mwb_truck" depart="100.00" departLane="free" departPos="last" departSpeed="max">
        <route edges="290296351 240042212 151495040 264308374 399250313 264308373"/>
    </vehicle>
    <vehicle id="truck_mwb1" type="truck_mwb_truck" depart="103.00" departLane="free" departPos="last" departSpeed="max">
        <route edges="290296351 240042212 151495040 264308374 399250313 264308373"/>
    </vehicle>
    <vehicle id="truck_mwb2" type="truck_mwb_truck" depart="106.00" departLane="free" departPos="last" departSpeed="max">
        <route edges="264306385 264308375 264308383 4054057 264308376"/>
    </vehicle>
    <vehicle id="truck_mwb3" type="truck_mwb_truck" depart="109.00" departLane="free" departPos="last" departSpeed="max">
        <route edges="264306385 264308375 264308383 4054057 264308376"/>
    </vehicle>
    <vehicle id="truck_mwb4" type="truck_mwb_truck" depart="112.00" departLane="free" departPos="last" departSpeed="max">
        <route edges="290296351 240042212 151495040 264308374 399250313 264308373"/>
    </vehicle>
    <vehicle id="truck_mwb5" type="truck_mwb_truck" depart="115.00" departLane="free" departPos="last" departSpeed="max">
        <route edges="290296351 240042212 151495040 264308374 399250313 264308373"/>
    </vehicle>
    <vehicle id="truck_mwb6" type="truck_mwb_truck" depart="118.00" departLane="free" departPos="last" departSpeed="max">
        <route edges="264306385 264308375 264308383 4054057 264308376"/>
    </vehicle>
    <vehicle id="truck_mwb7" type="truck_mwb_truck" depart="121.00" departLane="free" departPos="last" departSpeed="max">
        <route edges="290296351 240042212 151495040 264308374 399250313 264308373"/>
    </vehicle>
    <vehicle id="truck_mwb8" type="truck_mwb_truck" depart="124.00" departLane="free" departPos="last" departSpeed="max">
        <route edges="290296351 240042212 151495040 264308374 399250313 264308373"/>
    </vehicle>
    <vehicle id="truck_mwb9" type="truck_mwb_truck" depart="127.00" departLane="free" departPos="last" departSpeed="max">
        <route edges="264306385 264308375 264308383 4054057 264308376"/>
    </vehicle>
    <vehicle id="truck_mwb10" type="truck_mwb_truck" depart="130.00" departLane="free" departPos="last" departSpeed="max">
        <route edges="264306385 264308375 264308383 4054057 264308376"/>
    </vehicle>
    <vehicle id="truck_mwb11" type="truck_mwb_truck" depart="133.00" departLane="free" departPos="last" departSpeed="max">
        <route edges="264306385 264308375 264308383 4054057 264308376"/>
    </vehicle>
    <vehicle id="truck_mwb12" type="truck_mwb_truck" depart="136.00" departLane="free" departPos="last" departSpeed="max">
        <route edges="290296351 240042212 151495040 264308374 399250313 264308373"/>
    </vehicle>
    <vehicle id="truck_mwb13" type="truck_mwb_truck" depart="139.00" departLane="free" departPos="last" departSpeed="max">
        <route edges="290296351 240042212 151495040 264308374 399250313 264308373"/>
    </vehicle>
    <vehicle id="truck_mwb14" type="truck_mwb_truck" depart="142.00" departLane="free" departPos="last" departSpeed="max">
        <route edges="290296351 240042212 151495040 264308374 399250313 264308373"/>
    </vehicle>
    <vehicle id="truck_mwb15" type="truck_mwb_truck" depart="145.00" departLane="free" departPos="last" departSpeed="max">
        <route edges="290296351 240042212 151495040 264308374 399250313 264308373"/>
    </vehicle>
    <vehicle id="truck_mwb16" type="truck_mwb_truck" depart="148.00" departLane="free" departPos="last" departSpeed="max">
        <route edges="264306385 264308375 264308383 4054057 264308376"/>
    </vehicle>
    <vehicle id="truck_mwb17" type="truck_mwb_truck" depart="151.00" departLane="free" departPos="last" departSpeed="max">
        <route edges="290296351 240042212 151495040 264308374 399250313 264308373"/>
    </vehicle>
    <vehicle id="truck_mwb18" type="truck_mwb_truck" depart="154.00" departLane="free" departPos="last" departSpeed="max">
        <route edges="264306385 264308375 264308383 4054057 264308376"/>
    </vehicle>
    <vehicle id="truck_mwb19" type="truck_mwb_truck" depart="157.00" departLane="free" departPos="last" departSpeed="max">
        <route edges="264306385 264308375 264308383 4054057 264308376"/>
    </vehicle>
    <vehicle id="truck_mwb20" type="truck_mwb_truck" depart="160.00" departLane="free" departPos="last" departSpeed="max">
        <route edges="264306385 264308375 264308383 4054057 264308376"/>
    </vehicle>
    <vehicle id="truck_mwb21" type="truck_mwb_truck" depart="163.00" departLane="free" departPos="last" departSpeed="max">
        <route edges="290296351 240042212 151495040 264308374 399250313 264308373"/>
    </vehicle>
    <vehicle id="truck_mwb23" type="truck_mwb_truck" depart="169.00" departLane="free" departPos="last" departSpeed="max">
        <route edges="264306385 264308375 264308383 4054057 264308376"/>
    </vehicle>
    <vehicle id="truck_mwb24" type="truck_mwb_truck" depart="172.00" departLane="free" departPos="last" departSpeed="max">
        <route edges="290296351 240042212 151495040 264308374 399250313 264308373"/>
    </vehicle>
    <vehicle id="truck_mwb25" type="truck_mwb_truck" depart="175.00" departLane="free" departPos="last" departSpeed="max">
        <route edges="240042212 151495040 264308374 399250313 264308373"/>
    </vehicle>
    <vehicle id="truck_mwb26" type="truck_mwb_truck" depart="178.00" departLane="free" departPos="last" departSpeed="max">
        <route edges="264306385 264308375 264308383 4054057 264308376"/>
    </vehicle>
    <vehicle id="truck_mwb27" type="truck_mwb_truck" depart="181.00" departLane="free" departPos="last" departSpeed="max">
        <route edges="264306385 264308375 264308383 4054057 264308376"/>
    </vehicle>
    <vehicle id="truck_mwb28" type="truck_mwb_truck" depart="184.00" departLane="free" departPos="last" departSpeed="max">
        <route edges="290296351 240042212 151495040 264308374 399250313 264308373"/>
    </vehicle>
    <vehicle id="truck_mwb29" type="truck_mwb_truck" depart="187.00" departLane="free" departPos="last" departSpeed="max">
        <route edges="264306385 264308375 264308383 4054057 264308376"/>
    </vehicle>
    <vehicle id="truck_mwb30" type="truck_mwb_truck" depart="190.00" departLane="free" departPos="last" departSpeed="max">
        <route edges="264306385 264308375 264308383 4054057 264308376"/>
    </vehicle>
    <vehicle id="truck_mwb31" type="truck_mwb_truck" depart="193.00" departLane="free" departPos="last" departSpeed="max">
        <route edges="264306385 264308375 264308383 4054057 264308376"/>
    </vehicle>
    <vehicle id="truck_mwb32" type="truck_mwb_truck" depart="196.00" departLane="free" departPos="last" departSpeed="max">
        <route edges="264306385 264308375 264308383 4054057 264308376"/>
    </vehicle>
    <vehicle id="truck_mwb33" type="truck_mwb_truck" depart="199.00" departLane="free" departPos="last" departSpeed="max">
        <route edges="264306385 264308375 264308383 4054057 264308376"/>
    </vehicle>
    <vehicle id="truck_mwb34" type="truck_mwb_truck" depart="202.00" departLane="free" departPos="last" departSpeed="max">
        <route edges="264306385 264308375 264308383 4054057 264308376"/>
    </vehicle>
    <vehicle id="truck_mwb35" type="truck_mwb_truck" depart="205.00" departLane="free" departPos="last" departSpeed="max">
        <route edges="290296351 240042212 151495040 264308374 399250313 264308373"/>
    </vehicle>
    <vehicle id="truck_mwb36" type="truck_mwb_truck" depart="208.00" departLane="free" departPos="last" departSpeed="max">
        <route edges="264306385 264308375 264308383 4054057 264308376"/>
    </vehicle>
    <vehicle id="truck_mwb37" type="truck_mwb_truck" depart="211.00" departLane="free" departPos="last" departSpeed="max">
        <route edges="264306385 264308375 264308383 4054057 264308376"/>
    </vehicle>
    <vehicle id="truck_mwb38" type="truck_mwb_truck" depart="214.00" departLane="free" departPos="last" departSpeed="max">
        <route edges="290296351 240042212 151495040 264308374 399250313 264308373"/>
    </vehicle>
    <vehicle id="truck_mwb39" type="truck_mwb_truck" depart="217.00" departLane="free" departPos="last" departSpeed="max">
        <route edges="290296351 240042212 151495040 264308374 399250313 264308373"/>
    </vehicle>
    <vehicle id="truck_mwb40" type="truck_mwb_truck" depart="220.00" departLane="free" departPos="last" departSpeed="max">
        <route edges="290296351 240042212 151495040 264308374 399250313 264308373"/>
    </vehicle>
    <vehicle id="truck_mwb41" type="truck_mwb_truck" depart="223.00" departLane="free" departPos="last" departSpeed="max">
        <route edges="264306385 264308375 264308383 4054057 264308376"/>
    </vehicle>
    <vehicle id="truck_mwb42" type="truck_mwb_truck" depart="226.00" departLane="free" departPos="last" departSpeed="max">
        <route edges="264306385 264308375 264308383 4054057 264308376"/>
    </vehicle>
    <vehicle id="truck_mwb43" type="truck_mwb_truck" depart="229.00" departLane="free" departPos="last" departSpeed="max">
        <route edges="290296351 240042212 151495040 264308374 399250313 264308373"/>
    </vehicle>
    <vehicle id="truck_mwb45" type="truck_mwb_truck" depart="235.00" departLane="free" departPos="last" departSpeed="max">
        <route edges="290296351 240042212 151495040 264308374 399250313 264308373"/>
    </vehicle>
    <vehicle id="truck_mwb46" type="truck_mwb_truck" depart="238.00" departLane="free" departPos="last" departSpeed="max">
        <route edges="264306385 264308375 264308383 4054057 264308376"/>
    </vehicle>
    <vehicle id="truck_mwb47" type="truck_mwb_truck" depart="241.00" departLane="free" departPos="last" departSpeed="max">
        <route edges="264306385 264308375 264308383 4054057 264308376"/>
    </vehicle>
    <vehicle id="truck_mwb48" type="truck_mwb_truck" depart="244.00" departLane="free" departPos="last" departSpeed="max">
        <route edges="264306385 264308375 264308383 4054057 264308376"/>
    </vehicle>
    <vehicle id="truck_mwb49" type="truck_mwb_truck" depart="247.00" departLane="free" departPos="last" departSpeed="max">
        <route edges="264306385 264308375 264308383 4054057 264308376"/>
    </vehicle>
    <vehicle id="truck_mwb50" type="truck_mwb_truck" depart="250.00" departLane="free" departPos="last" departSpeed="max">
        <route edges="290296351 240042212 151495040 264308374 399250313 264308373"/>
    </vehicle>
    <vehicle id="truck_mwb51" type="truck_mwb_truck" depart="253.00" departLane="free" departPos="last" departSpeed="max">
        <route edges="264306385 264308375 264308383 4054057 264308376"/>
    </vehicle>
    <vehicle id="truck_mwb52" type="truck_mwb_truck" depart="256.00" departLane="free" departPos="last" departSpeed="max">
        <route edges="264306385 264308375 264308383 4054057 264308376"/>
    </vehicle>
    <vehicle id="truck_mwb53" type="truck_mwb_truck" depart="259.00" departLane="free" departPos="last" departSpeed="max">
        <route edges="290296351 240042212 151495040 264308374 399250313 264308373"/>
    </vehicle>
    <vehicle id="truck_mwb54" type="truck_mwb_truck" depart="262.00" departLane="free" departPos="last" departSpeed="max">
        <route edges="264306385 264308375 264308383 4054057 264308376"/>
    </vehicle>
    <vehicle id="truck_mwb55" type="truck_mwb_truck" depart="265.00" departLane="free" departPos="last" departSpeed="max">
        <route edges="264306385 264308375 264308383 4054057 264308376"/>
    </vehicle>
    <vehicle id="truck_mwb56" type="truck_mwb_truck" depart="268.00" departLane="free" departPos="last" departSpeed="max">
        <route edges="290296351 240042212 151495040 264308374 399250313 264308373"/>
    </vehicle>
    <vehicle id="truck_mwb57" type="truck_mwb_truck" depart="271.00" departLane="free" departPos="last" departSpeed="max">
        <route edges="290296351 240042212 151495040 264308374 399250313 264308373"/>
    </vehicle>
    <vehicle id="truck_mwb58" type="truck_mwb_truck" depart="274.00" departLane="free" departPos="last" departSpeed="max">
        <route edges="264306385 264308375 264308383 4054057 264308376"/>
    </vehicle>
    <vehicle id="truck_mwb59" type="truck_mwb_truck" depart="277.00" departLane="free" departPos="last" departSpeed="max">
        <route edges="264306385 264308375 264308383 4054057 264308376"/>
    </vehicle>
    <vehicle id="truck_mwb60" type="truck_mwb_truck" depart="280.00" departLane="free" departPos="last" departSpeed="max">
        <route edges="290296351 240042212 151495040 264308374 399250313 264308373"/>
    </vehicle>
    <vehicle id="truck_mwb61" type="truck_mwb_truck" depart="283.00" departLane="free" departPos="last" departSpeed="max">
        <route edges="290296351 240042212 151495040 264308374 399250313 264308373"/>
    </vehicle>
    <vehicle id="truck_mwb62" type="truck_mwb_truck" depart="286.00" departLane="free" departPos="last" departSpeed="max">
        <route edges="264306385 264308375 264308383 4054057 264308376"/>
    </vehicle>
    <vehicle id="truck_mwb63" type="truck_mwb_truck" depart="289.00" departLane="free" departPos="last" departSpeed="max">
        <route edges="290296351 240042212 151495040 264308374 399250313 264308373"/>
    </vehicle>
    <vehicle id="truck_mwb64" type="truck_mwb_truck" depart="292.00" departLane="free" departPos="last" departSpeed="max">
        <route edges="264306385 264308375 264308383 4054057 264308376"/>
    </vehicle>
    <vehicle id="truck_mwb65" type="truck_mwb_truck" depart="295.00" departLane="free" departPos="last" departSpeed="max">
        <route edges="290296351 240042212 151495040 264308374 399250313 264308373"/>
    </vehicle>
    <vehicle id="truck_mwb66" type="truck_mwb_truck" depart="298.00" departLane="free" departPos="last" departSpeed="max">
        <route edges="264306385 264308375 264308383 4054057 264308376"/>
    </vehicle>
    <vehicle id="truck_mwb67" type="truck_mwb_truck" depart="301.00" departLane="free" departPos="last" departSpeed="max">
        <route edges="264306385 264308375 264308383 4054057 264308376"/>
    </vehicle>
    <vehicle id="truck_mwb68" type="truck_mwb_truck" depart="304.00" departLane="free" departPos="last" departSpeed="max">
        <route edges="290296351 240042212 151495040 264308374 399250313 264308373"/>
    </vehicle>
    <vehicle id="truck_mwb69" type="truck_mwb_truck" depart="307.00" departLane="free" departPos="last" departSpeed="max">
        <route edges="264306385 264308375 264308383 4054057 264308376"/>
    </vehicle>
    <vehicle id="truck_mwb70" type="truck_mwb_truck" depart="310.00" departLane="free" departPos="last" departSpeed="max">
        <route edges="264306385 264308375 264308383 4054057 264308376"/>
    </vehicle>
    <vehicle id="truck_mwb71" type="truck_mwb_truck" depart="313.00" departLane="free" departPos="last" departSpeed="max">
        <route edges="264306385 264308375 264308383 4054057 264308376"/>
    </vehicle>
    <vehicle id="truck_mwb72" type="truck_mwb_truck" depart="316.00" departLane="free" departPos="last" departSpeed="max">
        <route edges="264306385 264308375 264308383 4054057 264308376"/>
    </vehicle>
    <vehicle id="truck_mwb73" type="truck_mwb_truck" depart="319.00" departLane="free" departPos="last" departSpeed="max">
        <route edges="290296351 240042212 151495040 264308374 399250313 264308373"/>
    </vehicle>
    <vehicle id="truck_mwb74" type="truck_mwb_truck" depart="322.00" departLane="free" departPos="last" departSpeed="max">
        <route edges="290296351 240042212 151495040 264308374 399250313 264308373"/>
    </vehicle>
    <vehicle id="truck_mwb75" type="truck_mwb_truck" depart="325.00" departLane="free" departPos="last" departSpeed="max">
        <route edges="264306385 264308375 264308383 4054057 264308376"/>
    </vehicle>
    <vehicle id="truck_mwb76" type="truck_mwb_truck" depart="328.00" departLane="free" departPos="last" departSpeed="max">
        <route edges="290296351 240042212 151495040 264308374 399250313 264308373"/>
    </vehicle>
    <vehicle id="truck_mwb77" type="truck_mwb_truck" depart="331.00" departLane="free" departPos="last" departSpeed="max">
        <route edges="264306385 264308375 264308383 4054057 264308376"/>
    </vehicle>
    <vehicle id="truck_mwb78" type="truck_mwb_truck" depart="334.00" departLane="free" departPos="last" departSpeed="max">
        <route edges="290296351 240042212 151495040 264308374 399250313 264308373"/>
    </vehicle>
    <vehicle id="truck_mwb79" type="truck_mwb_truck" depart="337.00" departLane="free" departPos="last" departSpeed="max">
        <route edges="290296351 240042212 151495040 264308374 399250313 264308373"/>
    </vehicle>
    <vehicle id="truck_mwb80" type="truck_mwb_truck" depart="340.00" departLane="free" departPos="last" departSpeed="max">
        <route edges="290296351 240042212 151495040 264308374 399250313 264308373"/>
    </vehicle>
    <vehicle id="truck_mwb81" type="truck_mwb_truck" depart="343.00" departLane="free" departPos="last" departSpeed="max">
        <route edges="290296351 240042212 151495040 264308374 399250313 264308373"/>
    </vehicle>
    <vehicle id="truck_mwb82" type="truck_mwb_truck" depart="346.00" departLane="free" departPos="last" departSpeed="max">
        <route edges="290296351 240042212 151495040 264308374 399250313 264308373"/>
    </vehicle>
    <vehicle id="truck_mwb83" type="truck_mwb_truck" depart="349.00" departLane="free" departPos="last" departSpeed="max">
        <route edges="290296351 240042212 151495040 264308374 399250313 264308373"/>
    </vehicle>
    <vehicle id="truck_mwb84" type="truck_mwb_truck" depart="352.00" departLane="free" departPos="last" departSpeed="max">
        <route edges="264306385 264308375 264308383 4054057 264308376"/>
    </vehicle>
    <vehicle id="truck_mwb85" type="truck_mwb_truck" depart="355.00" departLane="free" departPos="last" departSpeed="max">
        <route edges="264306385 264308375 264308383 4054057 264308376"/>
    </vehicle>
    <vehicle id="truck_mwb86" type="truck_mwb_truck" depart="358.00" departLane="free" departPos="last" departSpeed="max">
        <route edges="264306385 264308375 264308383 4054057 264308376"/>
    </vehicle>
    <vehicle id="truck_mwb87" type="truck_mwb_truck" depart="361.00" departLane="free" departPos="last" departSpeed="max">
        <route edges="290296351 240042212 151495040 264308374 399250313 264308373"/>
    </vehicle>
    <vehicle id="truck_mwb88" type="truck_mwb_truck" depart="364.00" departLane="free" departPos="last" departSpeed="max">
        <route edges="264306385 264308375 264308383 4054057 264308376"/>
    </vehicle>
    <vehicle id="truck_mwb89" type="truck_mwb_truck" depart="367.00" departLane="free" departPos="last" departSpeed="max">
        <route edges="290296351 240042212 151495040 264308374 399250313 264308373"/>
    </vehicle>
    <vehicle id="truck_mwb90" type="truck_mwb_truck" depart="370.00" departLane="free" departPos="last" departSpeed="max">
        <route edges="264306385 264308375 264308383 4054057 264308376"/>
    </vehicle>
    <vehicle id="truck_mwb91" type="truck_mwb_truck" depart="373.00" departLane="free" departPos="last" departSpeed="max">
        <route edges="151495040 264308374 399250313 264308373"/>
    </vehicle>
    <vehicle id="truck_mwb92" type="truck_mwb_truck" depart="376.00" departLane="free" departPos="last" departSpeed="max">
        <route edges="264306385 264308375 264308383 4054057 264308376"/>
    </vehicle>
    <vehicle id="truck_mwb93" type="truck_mwb_truck" depart="379.00" departLane="free" departPos="last" departSpeed="max">
        <route edges="290296351 240042212 151495040 264308374 399250313 264308373"/>
    </vehicle>
    <vehicle id="truck_mwb94" type="truck_mwb_truck" depart="382.00" departLane="free" departPos="last" departSpeed="max">
        <route edges="264306385 264308375 264308383 4054057 264308376"/>
    </vehicle>
    <vehicle id="truck_mwb95" type="truck_mwb_truck" depart="385.00" departLane="free" departPos="last" departSpeed="max">
        <route edges="290296351 240042212 151495040 264308374 399250313 264308373"/>
    </vehicle>
    <vehicle id="truck_mwb96" type="truck_mwb_truck" depart="388.00" departLane="free" departPos="last" departSpeed="max">
        <route edges="264306385 264308375 264308383 4054057 264308376"/>
    </vehicle>
    <vehicle id="truck_mwb97" type="truck_mwb_truck" depart="391.00" departLane="free" departPos="last" departSpeed="max">
        <route edges="290296351 240042212 151495040 264308374 399250313 264308373"/>
    </vehicle>
    <vehicle id="truck_mwb98" type="truck_mwb_truck" depart="394.00" departLane="free" departPos="last" departSpeed="max">
        <route edges="290296351 240042212 151495040 264308374 399250313 264308373"/>
    </vehicle>
    <vehicle id="truck_mwb99" type="truck_mwb_truck" depart="397.00" departLane="free" departPos="last" departSpeed="max">
        <route edges="290296351 240042212 151495040 264308374 399250313 264308373"/>
    </vehicle>
    <vehicle id="truck_mwb100" type="truck_mwb_truck" depart="400.00" departLane="free" departPos="last" departSpeed="max">
        <route edges="264306385 264308375 264308383 4054057 264308376"/>
    </vehicle>
    <vehicle id="truck_mwb101" type="truck_mwb_truck" depart="403.00" departLane="free" departPos="last" departSpeed="max">
        <route edges="264306385 264308375 264308383 4054057 264308376"/>
    </vehicle>
    <vehicle id="truck_mwb102" type="truck_mwb_truck" depart="406.00" departLane="free" departPos="last" departSpeed="max">
        <route edges="290296351 240042212 151495040 264308374 399250313 264308373"/>
    </vehicle>
    <vehicle id="truck_mwb103" type="truck_mwb_truck" depart="409.00" departLane="free" departPos="last" departSpeed="max">
        <route edges="264306385 264308375 264308383 4054057 264308376"/>
    </vehicle>
    <vehicle id="truck_mwb104" type="truck_mwb_truck" depart="412.00" departLane="free" departPos="last" departSpeed="max">
        <route edges="290296351 240042212 151495040 264308374 399250313 264308373"/>
    </vehicle>
    <vehicle id="truck_mwb105" type="truck_mwb_truck" depart="415.00" departLane="free" departPos="last" departSpeed="max">
        <route edges="264306385 264308375 264308383 4054057 264308376"/>
    </vehicle>
    <vehicle id="truck_mwb106" type="truck_mwb_truck" depart="418.00" departLane="free" departPos="last" departSpeed="max">
        <route edges="264306385 264308375 264308383 4054057 264308376"/>
    </vehicle>
    <vehicle id="truck_mwb107" type="truck_mwb_truck" depart="421.00" departLane="free" departPos="last" departSpeed="max">
        <route edges="264306385 264308375 264308383 4054057 264308376"/>
    </vehicle>
    <vehicle id="truck_mwb108" type="truck_mwb_truck" depart="424.00" departLane="free" departPos="last" departSpeed="max">
        <route edges="290296351 240042212 151495040 264308374 399250313 264308373"/>
    </vehicle>
    <vehicle id="truck_mwb109" type="truck_mwb_truck" depart="427.00" departLane="free" departPos="last" departSpeed="max">
        <route edges="290296351 240042212 151495040 264308374 399250313 264308373"/>
    </vehicle>
    <vehicle id="truck_mwb110" type="truck_mwb_truck" depart="430.00" departLane="free" departPos="last" departSpeed="max">
        <route edges="264306385 264308375 264308383 4054057 264308376"/>
    </vehicle>
    <vehicle id="truck_mwb111" type="truck_mwb_truck" depart="433.00" departLane="free" departPos="last" departSpeed="max">
        <route edges="290296351 240042212 151495040 264308374 399250313 264308373"/>
    </vehicle>
    <vehicle id="truck_mwb112" type="truck_mwb_truck" depart="436.00" departLane="free" departPos="last" departSpeed="max">
        <route edges="264306385 264308375 264308383 4054057 264308376"/>
    </vehicle>
    <vehicle id="truck_mwb113" type="truck_mwb_truck" depart="439.00" departLane="free" departPos="last" departSpeed="max">
        <route edges="264306385 264308375 264308383 4054057 264308376"/>
    </vehicle>
    <vehicle id="truck_mwb114" type="truck_mwb_truck" depart="442.00" departLane="free" departPos="last" departSpeed="max">
        <route edges="264306385 264308375 264308383 4054057 264308376"/>
    </vehicle>
    <vehicle id="truck_mwb115" type="truck_mwb_truck" depart="445.00" departLane="free" departPos="last" departSpeed="max">
        <route edges="264306385 264308375 264308383 4054057 264308376"/>
    </vehicle>
    <vehicle id="truck_mwb116" type="truck_mwb_truck" depart="448.00" departLane="free" departPos="last" departSpeed="max">
        <route edges="264306385 264308375 264308383 4054057 264308376"/>
    </vehicle>
    <vehicle id="truck_mwb117" type="truck_mwb_truck" depart="451.00" departLane="free" departPos="last" departSpeed="max">
        <route edges="290296351 240042212 151495040 264308374 399250313 264308373"/>
    </vehicle>
    <vehicle id="truck_mwb118" type="truck_mwb_truck" depart="454.00" departLane="free" departPos="last" departSpeed="max">
        <route edges="264306385 264308375 264308383 4054057 264308376"/>
    </vehicle>
    <vehicle id="truck_mwb119" type="truck_mwb_truck" depart="457.00" departLane="free" departPos="last" departSpeed="max">
        <route edges="264306385 264308375 264308383 4054057 264308376"/>
    </vehicle>
    <vehicle id="truck_mwb120" type="truck_mwb_truck" depart="460.00" departLane="free" departPos="last" departSpeed="max">
        <route edges="290296351 240042212 151495040 264308374 399250313 264308373"/>
    </vehicle>
    <vehicle id="truck_mwb121" type="truck_mwb_truck" depart="463.00" departLane="free" departPos="last" departSpeed="max">
        <route edges="264306385 264308375 264308383 4054057 264308376"/>
    </vehicle>
    <vehicle id="truck_mwb123" type="truck_mwb_truck" depart="469.00" departLane="free" departPos="last" departSpeed="max">
        <route edges="290296351 240042212 151495040 264308374 399250313 264308373"/>
    </vehicle>
    <vehicle id="truck_mwb124" type="truck_mwb_truck" depart="472.00" departLane="free" departPos="last" departSpeed="max">
        <route edges="264306385 264308375 264308383 4054057 264308376"/>
    </vehicle>
    <vehicle id="truck_mwb125" type="truck_mwb_truck" depart="475.00" departLane="free" departPos="last" departSpeed="max">
        <route edges="290296351 240042212 151495040 264308374 399250313 264308373"/>
    </vehicle>
    <vehicle id="truck_mwb126" type="truck_mwb_truck" depart="478.00" departLane="free" departPos="last" departSpeed="max">
        <route edges="264306385 264308375 264308383 4054057 264308376"/>
    </vehicle>
    <vehicle id="truck_mwb127" type="truck_mwb_truck" depart="481.00" departLane="free" departPos="last" departSpeed="max">
        <route edges="290296351 240042212 151495040 264308374 399250313 264308373"/>
    </vehicle>
    <vehicle id="truck_mwb128" type="truck_mwb_truck" depart="484.00" departLane="free" departPos="last" departSpeed="max">
        <route edges="264306385 264308375 264308383 4054057 264308376"/>
    </vehicle>
    <vehicle id="truck_mwb129" type="truck_mwb_truck" depart="487.00" departLane="free" departPos="last" departSpeed="max">
        <route edges="290296351 240042212 151495040 264308374 399250313 264308373"/>
    </vehicle>
    <vehicle id="truck_mwb130" type="truck_mwb_truck" depart="490.00" departLane="free" departPos="last" departSpeed="max">
        <route edges="290296351 240042212 151495040 264308374 399250313 264308373"/>
    </vehicle>
    <vehicle id="truck_mwb131" type="truck_mwb_truck" depart="493.00" departLane="free" departPos="last" departSpeed="max">
        <route edges="264306385 264308375 264308383 4054057 264308376"/>
    </vehicle>
    <vehicle id="truck_mwb132" type="truck_mwb_truck" depart="496.00" departLane="free" departPos="last" departSpeed="max">
        <route edges="264306385 264308375 264308383 4054057 264308376"/>
    </vehicle>
    <vehicle id="truck_mwb133" type="truck_mwb_truck" depart="499.00" departLane="free" departPos="last" departSpeed="max">
        <route edges="290296351 240042212 151495040 264308374 399250313 264308373"/>
    </vehicle>
    <vehicle id="truck_mwb134" type="truck_mwb_truck" depart="502.00" departLane="free" departPos="last" departSpeed="max">
        <route edges="290296351 240042212 151495040 264308374 399250313 264308373"/>
    </vehicle>
    <vehicle id="truck_mwb135" type="truck_mwb_truck" depart="505.00" departLane="free" departPos="last" departSpeed="max">
        <route edges="264306385 264308375 264308383 4054057 264308376"/>
    </vehicle>
    <vehicle id="truck_mwb136" type="truck_mwb_truck" depart="508.00" departLane="free" departPos="last" departSpeed="max">