<?xml version="1.0" encoding="UTF-8"?>

<!-- generated on Wed Jun  6 11:22:55 2018 by Eclipse SUMO polyconvert Version 7cf86d2
<configuration xmlns:xsi="http://www.w3.org/2001/XMLSchema-instance" xsi:noNamespaceSchemaLocation="http://sumo.dlr.de/xsd/polyconvertConfiguration.xsd">

    <input>
        <net-file value="/scr2/debug/002_osmWebWizard/2018-06-06-11-22-53/osm.net.xml"/>
        <osm-files value="/scr2/debug/002_osmWebWizard/2018-06-06-11-22-53/osm_bbox.osm.xml"/>
        <osm.keep-full-type value="true"/>
        <type-file value="/scr1/sumo/data/typemap/osmPolyconvert.typ.xml"/>
    </input>

    <output>
        <output-file value="/scr2/debug/002_osmWebWizard/2018-06-06-11-22-53/osm.poly.xml"/>
    </output>

    <processing>
        <poi-layer-offset value="5"/>
    </processing>

    <report>
        <verbose value="true"/>
    </report>

</configuration>
-->

<additional xmlns:xsi="http://www.w3.org/2001/XMLSchema-instance" xsi:noNamespaceSchemaLocation="http://sumo.dlr.de/xsd/additional_file.xsd">
    <location netOffset="-402990.32,-5794389.48" convBoundary="-30390.24,-2650.47,4557.01,12323.21" origBoundary="13.127582,52.262905,13.643947,52.395814" projParameter="+proj=utm +zone=33 +ellps=WGS84 +datum=WGS84 +units=m +no_defs"/>

    <poly id="139596694" type="amenity.parking" color="184,184,179" fill="1" layer="-1.00" shape="2169.97,2748.37 2236.86,2717.02 2212.84,2666.02 2145.96,2697.36 2156.33,2719.40 2169.97,2748.37"/>
    <poly id="139596694#1" type="building.yes" color="255,230,230" fill="1" layer="-1.00" shape="2169.97,2748.37 2236.86,2717.02 2212.84,2666.02 2145.96,2697.36 2156.33,2719.40 2169.97,2748.37"/>
    <poly id="156640642" type="landuse.grass" color="194,194,130" fill="1" layer="-3.00" shape="1828.14,2763.58 1813.59,2760.02 1742.54,2645.20 1730.42,2632.24 1715.91,2620.56 1696.08,2590.23 1695.67,2583.27 1698.30,2578.26 1734.52,2527.49 1760.51,2469.70 1772.61,2420.66 1777.51,2360.60 1880.32,2303.78 1967.20,2265.85 2052.40,2237.71 2137.32,2219.35 2246.97,2202.37 2424.10,2181.31 2566.80,2162.77 2644.49,2155.71 2645.43,2180.32 2601.89,2413.56 2572.80,2597.71 2263.91,2745.37 2256.68,2731.17 2261.02,2718.23 2248.40,2695.85 2453.04,2597.21 2443.25,2572.76 2448.64,2561.97 2448.33,2545.71 2452.11,2534.82 2439.16,2457.31 2434.24,2452.97 2432.34,2436.86 2435.97,2429.43 2434.30,2415.69 2428.56,2413.30 2427.64,2401.88 2430.26,2388.06 2426.30,2347.31 2424.67,2335.23 2441.91,2281.99 2437.64,2273.71 2356.36,2242.29 2297.27,2219.91 2144.50,2236.61 2060.71,2255.02 1977.95,2282.16 1901.07,2315.29 1856.28,2339.84 1839.83,2374.44 1759.33,2553.38 1763.89,2572.35 1807.39,2604.97 1815.89,2610.85 1809.68,2627.24 1807.01,2657.96 1813.30,2669.93 1846.12,2728.78 1848.70,2742.22 1846.13,2753.88 1839.16,2761.68 1828.14,2763.58"/>
    <poly id="156640665" type="amenity.parking" color="184,184,179" fill="1" layer="-1.00" shape="1848.42,2679.01 1827.77,2647.34 1831.68,2632.40 1840.30,2620.60 1883.29,2590.81 1893.49,2583.75 1895.48,2582.37 1914.52,2578.74 1921.37,2579.59 1930.86,2580.75 1938.99,2591.75 1904.97,2615.64 1914.58,2630.33 1848.42,2679.01"/>
    <poly id="156640670" type="amenity.parking" color="184,184,179" fill="1" layer="-1.00" shape="2242.34,2675.96 2248.90,2689.83 2456.72,2589.38 2452.20,2574.26 2242.34,2675.96"/>
    <poly id="156918019" type="amenity.parking" color="184,184,179" fill="1" layer="-1.00" shape="2058.95,2267.27 2102.61,2359.87 2267.78,2415.31 2307.76,2294.78 2415.58,2334.31 2433.95,2280.46 2294.27,2229.44 2150.82,2246.53 2058.95,2267.27"/>
    <poly id="166430018" type="natural.plateau" color="140,196,107" fill="0" layer="-4.00" shape="-30390.24,12323.21 -29267.00,10937.21 -28720.97,9583.16 -27806.99,7933.47 -26802.45,6622.07 -25613.90,5491.51 -24796.07,4228.98 -24912.32,2961.03 -25859.06,1961.06 -25995.26,684.66 -25485.14,-726.13 -24671.83,-1996.89 -23689.94,-2636.13 -22008.07,-2650.47 -21026.09,-1901.80 -20908.72,-884.63 -19874.60,-720.76 -19308.19,-398.07 -18650.12,617.77 -18341.86,1809.17 -17797.36,2835.03 -17529.43,4026.87 -17600.70,5266.23 -18355.48,6361.58 -18314.39,7035.70 -18017.83,7621.32 -17413.67,8058.67 -17064.88,8116.23 -16696.54,8174.20 -16684.08,8176.16 -16647.18,8181.98 -14567.54,7598.39 -13957.02,7076.72 -13605.93,6335.14 -13603.80,3907.51 -13475.61,3311.68 -13119.12,2795.41 -12172.61,2068.30 -9827.63,519.82 -8062.68,-393.95 -6850.45,-673.91 -5234.03,-594.60 -3808.96,-171.80 -2604.39,566.56 -1620.98,1591.96 -365.58,2075.39 1256.54,1852.92 1794.15,2674.01 2370.66,4632.34"/>
    <poly id="219816203" type="building.retail" color="255,230,230" fill="1" layer="-1.00" shape="1583.01,2859.50 1559.52,2822.14 1573.21,2813.57 1540.14,2760.97 1606.35,2719.56 1638.53,2770.75 1643.46,2767.69 1676.03,2817.91 1608.22,2860.34 1600.72,2848.42 1583.01,2859.50"/>
    <poly id="219816224" type="landuse.grass" color="194,194,130" fill="1" layer="-3.00" shape="1335.55,2760.95 1205.37,2908.54 1244.03,3021.85 1289.32,3006.17 1342.37,3172.30 1367.67,3164.20 1397.78,3165.62 1425.98,3181.50 1434.62,3181.46 1442.73,3175.37 1454.25,3170.59 1469.97,3169.93 1474.70,3168.93 1487.06,3174.43 1490.06,3182.95 1497.14,3194.29 1499.05,3208.12 1497.54,3219.92 1518.00,3237.30 1532.30,3258.64 1547.89,3255.79 1555.35,3282.28 1536.66,3289.94 1557.71,3359.39 1755.47,3301.91 1694.16,3120.15 1696.37,3113.11 1702.67,3105.98 1762.24,3091.85 1742.32,3081.14 1734.93,3077.98 1723.99,3077.12 1691.39,3084.36 1681.69,3081.34 1674.67,3070.82 1666.23,3043.73 1660.97,3043.02 1659.48,3038.47 1605.43,3148.00 1428.39,3061.86 1430.70,3051.78 1419.78,3013.88 1452.87,2948.14 1560.98,3000.27 1571.16,2977.97 1597.49,2927.19 1557.28,2889.72 1545.74,2860.39 1534.93,2838.72 1408.46,2881.12 1364.64,2762.47 1335.55,2760.95"/>
    <poly id="219816257" type="building.yes" color="255,230,230" fill="1" layer="-1.00" shape="1831.47,2896.17 1840.74,2891.71 1828.37,2866.17 1819.10,2870.64 1831.47,2896.17"/>
    <poly id="219816258" type="landuse.retail" color="194,194,130" fill="1" layer="-3.00" shape="1666.74,2880.55 1669.90,2886.76 1694.34,2931.70 1836.38,2852.68 1816.72,2836.43 1803.73,2821.50 1785.16,2815.66 1666.74,2880.55"/>
    <poly id="219822391" type="landuse.commercial" color="209,209,204" fill="1" layer="-3.00" shape="1083.49,3502.70 915.87,3229.58 1243.00,2872.42 1347.67,3160.49 1389.05,3149.01 1430.45,3171.56 1469.27,3160.14 1494.85,3172.87 1512.46,3213.76 1553.57,3249.62 1584.45,3352.26 1083.49,3502.70"/>
    <poly id="219822400" type="landuse.commercial" color="209,209,204" fill="1" layer="-3.00" shape="1833.87,2903.45 1872.37,2883.05 1878.31,2875.45 1836.38,2852.68 1694.34,2931.70 1669.90,2886.76 1666.74,2880.55 1633.92,2898.51 1615.01,2919.32 1582.87,2982.66 1578.89,2981.68 1567.73,3003.82 1560.98,3000.27 1452.87,2948.14 1419.78,3013.88 1430.70,3051.78 1428.39,3061.86 1605.43,3148.00 1659.48,3038.47 1667.47,3023.54 1684.01,3068.00 1694.71,3076.55 1710.46,3073.91 1725.60,3070.12 1737.31,3069.90 1747.89,3072.61 1770.92,3083.26 1781.54,3087.72 1792.98,3086.59 1796.14,3086.27 1864.97,3074.43 1943.90,3070.57 2002.74,3057.45 2012.66,3055.24 1983.53,3001.52 1976.15,3006.22 1914.88,2977.13 1894.91,2966.20 1876.68,2974.77 1833.87,2903.45"/>
    <poly id="23961782" type="building.yes" color="255,230,230" fill="1" layer="-1.00" shape="1785.57,2556.97 1803.98,2568.81 1808.05,2563.66 1812.57,2566.49 1810.46,2569.72 1836.49,2587.19 1844.59,2575.14 1848.99,2577.89 1858.16,2564.46 1866.42,2569.69 1874.60,2560.02 1879.94,2551.45 1874.57,2548.41 1880.81,2534.42 1885.74,2536.22 1887.79,2527.15 1889.86,2514.86 1879.51,2512.82 1881.35,2505.73 1884.00,2505.89 1885.74,2498.21 1880.82,2497.42 1883.79,2483.05 1851.01,2475.98 1850.35,2478.77 1844.04,2477.49 1845.31,2471.11 1824.58,2466.73 1823.45,2472.27 1818.13,2470.77 1816.09,2479.50 1814.05,2478.84 1810.10,2496.72 1821.13,2498.53 1819.62,2503.53 1817.02,2502.60 1813.38,2515.97 1806.04,2527.01 1809.16,2529.28 1806.53,2533.13 1797.29,2526.15 1787.00,2542.20 1789.16,2543.82 1784.70,2550.59 1788.69,2553.28 1785.57,2556.97"/>
    <poly id="23961802" type="building.yes" color="255,230,230" fill="1" layer="-1.00" shape="2022.11,2566.23 2018.73,2559.68 2070.43,2383.71 2085.45,2376.59 2101.02,2370.08 2249.35,2423.32 2266.50,2428.84 2261.88,2440.38 2276.45,2445.76 2277.52,2440.48 2369.73,2472.51 2425.07,2493.03 2419.23,2506.22 2430.45,2510.52 2409.97,2572.95 2238.35,2656.80 2223.68,2624.39 2136.11,2666.36 2133.68,2661.74 2111.62,2672.29 2051.35,2701.12 2030.03,2657.75 2019.01,2662.62 2017.15,2657.40 1999.77,2665.15 1965.52,2595.17 2022.11,2566.23"/>
    <poly id="23961802#1" type="shop.mall" color="237,199,255" fill="1" layer="-1.00" shape="2022.11,2566.23 2018.73,2559.68 2070.43,2383.71 2085.45,2376.59 2101.02,2370.08 2249.35,2423.32 2266.50,2428.84 2261.88,2440.38 2276.45,2445.76 2277.52,2440.48 2369.73,2472.51 2425.07,2493.03 2419.23,2506.22 2430.45,2510.52 2409.97,2572.95 2238.35,2656.80 2223.68,2624.39 2136.11,2666.36 2133.68,2661.74 2111.62,2672.29 2051.35,2701.12 2030.03,2657.75 2019.01,2662.62 2017.15,2657.40 1999.77,2665.15 1965.52,2595.17 2022.11,2566.23"/>
    <poly id="24498481" type="amenity.parking" color="184,184,179" fill="1" layer="-1.00" shape="1596.68,2695.90 1643.46,2767.69 1683.40,2828.98 1771.08,2772.12 1684.37,2639.04 1596.68,2695.90"/>
    <poly id="24498686" type="building.yes" color="255,230,230" fill="1" layer="-1.00" shape="1878.61,2659.84 1915.93,2709.61 1966.41,2671.93 1929.10,2622.17 1878.61,2659.84"/>
    <poly id="24498687" type="building.yes" color="255,230,230" fill="1" layer="-1.00" shape="1926.18,2770.74 1963.67,2805.63 1957.37,2812.35 1984.62,2837.71 1990.15,2831.78 2044.72,2882.58 2110.59,2812.16 2077.73,2781.58 2062.71,2797.63 1976.28,2717.18 1926.18,2770.74"/>
    <poly id="245493999" type="landuse.farmland" color="194,194,130" fill="1" layer="-3.00" shape="1893.80,2233.19 1984.87,2203.63 2042.70,2186.11 2137.80,2166.39 2260.41,2150.90 2339.37,2147.56 2467.44,2130.51 2522.47,2119.24 2612.65,2107.77 2617.62,2104.01 2620.84,2100.29 2622.49,2088.86 2629.46,2053.79 2640.75,2031.68 2666.12,1981.20 2681.89,1962.20 2685.29,1950.55 2686.58,1941.77 2683.54,1935.62 2601.17,1951.42 2597.52,1949.95 2589.30,1904.94 2593.58,1899.39 2699.96,1873.91 2714.99,1798.81 2670.39,1800.40 2664.83,1797.21 2636.12,1653.62 2630.85,1646.06 2624.59,1643.62 2612.46,1642.85 2587.69,1648.80 2482.09,1672.62 2475.56,1677.58 2472.49,1683.75 2472.24,1693.25 2499.58,1842.81 2444.05,1854.12 2413.12,1695.23 2410.34,1691.60 2403.35,1688.88 2190.79,1744.99 2185.33,1748.48 2181.87,1756.84 2184.63,1766.64 2235.64,1853.84 2244.59,1862.43 2266.65,1883.60 2277.39,1893.91 2342.78,2003.08 2342.48,2006.37 2326.09,2010.33 2119.55,2074.72 1913.16,2148.18 1880.88,2162.68 1870.46,2173.42 1869.63,2185.88 1870.02,2188.60 1870.42,2191.33 1871.31,2197.52 1884.76,2228.92 1893.80,2233.19"/>
    <poly id="245494955" type="amenity.parking" color="184,184,179" fill="1" layer="-1.00" shape="1942.10,2538.77 1949.55,2536.25 1970.80,2537.60 1992.93,2527.85 2001.01,2524.29 2009.78,2520.49 2011.84,2515.24 2016.98,2502.10 2057.60,2384.66 2039.53,2347.48 2061.30,2337.45 2037.69,2288.82 2032.26,2291.66 2027.89,2282.18 2010.93,2289.58 2005.94,2279.49 1989.36,2284.73 1973.77,2291.41 1956.74,2298.69 1940.38,2305.69 1925.43,2313.13 1915.72,2317.87 1903.55,2324.02 1887.30,2332.10 1871.39,2340.01 1862.99,2343.99 1857.29,2349.26 1862.61,2362.06 1856.08,2365.10 1889.95,2433.50 1911.82,2479.31 1942.10,2538.77"/>
    <poly id="25797765" type="landuse.farmland" color="194,194,130" fill="1" layer="-3.00" shape="853.37,2364.74 850.56,2340.86 854.10,2222.27 858.27,2216.39 1016.10,2215.62 1022.07,2221.33 1033.48,2356.56 1028.39,2366.01 1019.12,2370.86 862.78,2367.47 853.37,2364.74"/>
    <poly id="25797765#1" type="natural.wood" color="140,196,107" fill="1" layer="-4.00" shape="853.37,2364.74 850.56,2340.86 854.10,2222.27 858.27,2216.39 1016.10,2215.62 1022.07,2221.33 1033.48,2356.56 1028.39,2366.01 1019.12,2370.86 862.78,2367.47 853.37,2364.74"/>
    <poly id="26764064" type="landuse.forest" color="140,196,107" fill="1" layer="-3.00" shape="2485.42,1225.32 2434.07,1209.52 2386.67,1191.15 2383.95,1173.32 2382.23,1141.24 2379.95,1126.86 2345.57,1116.32 2347.32,1074.32 2346.09,1030.62 2346.50,1023.12 2333.66,1021.54 2320.28,1018.63 2292.33,1010.60 2274.95,1004.64 2295.28,935.34 2273.36,921.74 2228.77,916.76 2173.21,920.16 2126.58,930.40 2086.42,942.86 2079.20,902.69 2079.26,882.22 2073.69,885.12 2074.69,865.44 2064.80,866.30 1897.89,1056.84 1814.98,1167.99 1774.65,1215.61 1763.26,1228.55 1755.26,1231.26 1733.01,1232.15 1726.04,1236.03 1729.97,1261.58 1740.59,1295.92 1749.97,1318.55 1751.04,1367.79 1750.97,1411.88 1757.98,1610.79 1757.56,1922.60 1753.00,2151.27 1752.51,2176.09 1756.03,2206.97 1758.41,2212.07 1781.06,2260.78 1786.33,2260.68 1870.46,2173.42 1880.88,2162.68 1913.16,2148.18 2119.55,2074.72 2326.09,2010.33 2342.48,2006.37 2342.78,2003.08 2277.39,1893.91 2266.65,1883.60 2244.59,1862.43 2235.64,1853.84 2184.63,1766.64 2181.87,1756.84 2185.33,1748.48 2190.79,1744.99 2193.61,1740.62 2414.90,1678.15 2400.72,1610.11 2385.27,1548.90 2317.34,1566.17 2311.06,1544.09 2308.92,1524.28 2313.34,1510.18 2327.02,1491.24 2328.02,1481.87 2325.54,1474.91 2300.31,1471.90 2283.61,1486.23 2254.48,1462.84 2044.90,1706.28 2039.69,1709.30 2035.49,1704.13 2161.89,1549.29 2170.14,1521.70 2169.20,1503.02 2201.40,1473.21 2220.02,1436.65 2231.32,1414.72 2239.77,1398.32 2248.77,1385.18 2263.81,1375.56 2285.96,1370.46 2311.14,1371.15 2334.07,1375.96 2350.72,1389.66 2351.04,1406.58 2346.15,1426.53 2342.58,1436.83 2331.84,1467.79 2347.69,1469.82 2375.30,1475.12 2398.16,1477.02 2424.84,1477.31 2428.51,1485.42 2447.59,1490.09 2456.62,1502.77 2390.42,1549.29 2405.88,1608.23 2422.54,1678.04 2466.22,1667.83 2469.65,1667.08 2638.28,1629.68 2728.52,1609.68 2753.51,1478.63 2741.68,1476.69 2729.48,1401.32 2673.67,1313.74 2646.77,1269.53 2641.49,1262.24 2601.58,1209.74 2570.38,1184.44 2531.77,1172.76 2519.95,1168.06 2485.42,1225.32"/>
    <poly id="26768609" type="landuse.farmland" color="194,194,130" fill="1" layer="-3.00" shape="555.77,3009.80 802.29,3012.12 774.69,2825.54 847.02,2779.87 891.91,2743.87 942.19,2711.36 988.29,2690.68 1140.08,2594.85 1131.40,2539.55 1137.12,2532.43 1205.43,2524.11 1202.79,2478.62 1205.45,2404.42 1211.01,2329.00 1264.86,2329.12 1269.42,2323.19 1276.76,2061.49 1265.77,2051.37 1250.59,2023.06 1213.88,1971.23 1011.19,1691.98 993.58,1689.40 569.27,1694.16 569.69,1984.94 569.48,2184.04 571.20,2391.84 541.32,2390.68 552.23,2649.10 554.61,2920.51 555.77,3009.80"/>
    <poly id="26768701" type="natural.wood" color="140,196,107" fill="1" layer="-4.00" shape="1555.84,2339.36 1557.54,2360.48 1558.54,2372.82 1579.92,2395.82 1615.90,2402.76 1622.54,2402.63 1643.55,2396.96 1696.29,2361.04 1719.20,2343.86 1731.15,2295.75 1733.98,2260.66 1732.36,2237.35 1727.42,2224.02 1717.30,2215.46 1704.91,2209.86 1686.18,2211.84 1634.31,2245.94 1587.75,2283.79 1560.06,2310.27 1553.16,2319.40 1555.84,2339.36"/>
    <poly id="26842691" type="landuse.industrial" color="209,209,204" fill="1" layer="-3.00" shape="1428.81,2328.36 1428.64,2325.54 1429.62,2248.95 1411.97,2225.45 1346.95,2225.16 1348.70,2329.67 1428.81,2328.36"/>
    <poly id="26933383" type="landuse.forest" color="140,196,107" fill="1" layer="-3.00" shape="570.11,1268.00 692.69,1306.93 784.06,1334.90 797.94,1325.87 821.08,1357.82 847.75,1394.65 908.03,1477.88 1125.21,1779.04 1301.80,2032.75 1276.76,2061.49 1265.77,2051.37 1250.59,2023.06 1213.88,1971.23 1011.19,1691.98 993.58,1689.40 569.27,1694.16 569.69,1984.94 569.48,2184.04 571.20,2391.84 541.32,2390.68 538.28,2351.59 541.13,2227.75 539.59,2059.63 543.18,1823.67 542.35,1691.73 535.38,1674.52 542.20,1294.66 538.37,1278.39 530.05,1271.54 523.88,1255.90 521.23,1240.18 526.20,1158.41 570.00,1152.88 570.11,1268.00"/>
    <poly id="26962239" type="building.yes" color="255,230,230" fill="1" layer="-1.00" shape="1807.26,2861.91 1800.97,2850.24 1774.08,2864.65 1780.38,2876.33 1807.26,2861.91"/>
    <poly id="27777975" type="building.yes" color="255,230,230" fill="1" layer="-1.00" shape="1852.83,2692.54 1860.06,2686.96 1868.89,2680.13 1866.02,2676.44 1872.96,2671.08 1891.73,2695.26 1884.28,2701.02 1882.49,2698.71 1873.17,2705.91 1866.95,2710.71 1852.83,2692.54"/>
    <poly id="27777977" type="building.yes" color="255,230,230" fill="1" layer="-1.00" shape="1898.14,2752.75 1921.61,2733.78 1917.96,2729.29 1909.72,2735.96 1894.10,2716.74 1888.56,2721.22 1903.95,2740.16 1894.27,2747.99 1898.14,2752.75"/>
    <poly id="27777983" type="building.yes" color="255,230,230" fill="1" layer="-1.00" shape="1961.48,2625.53 1941.61,2599.87 1930.50,2608.43 1950.37,2634.09 1961.48,2625.53"/>
    <poly id="279915144" type="building.yes" color="255,230,230" fill="1" layer="-1.00" shape="1395.19,2252.44 1395.07,2242.77 1362.97,2243.19 1363.10,2252.85 1395.19,2252.44"/>
    <poly id="279915147" type="building.yes" color="255,230,230" fill="1" layer="-1.00" shape="1361.53,2276.88 1361.85,2255.65 1352.21,2255.50 1351.90,2276.75 1361.53,2276.88"/>
    <poly id="29489710" type="amenity.parking" color="184,184,179" fill="1" layer="-1.00" shape="1766.14,2863.83 1803.62,2843.48 1787.63,2822.56 1753.48,2840.30 1766.14,2863.83"/>
    <poly id="29489711" type="amenity.parking" color="184,184,179" fill="1" layer="-1.00" shape="1769.38,2886.79 1747.05,2844.69 1672.19,2887.41 1679.64,2900.33 1727.68,2873.69 1742.46,2902.30 1769.38,2886.79"/>
    <poly id="299804594" type="amenity.parking" color="184,184,179" fill="1" layer="-1.00" shape="1564.12,1981.14 1564.26,1989.20 1564.08,2071.55 1614.41,2066.69 1645.53,2063.88 1645.76,2060.79 1646.86,1984.87 1646.46,1981.90 1634.55,1977.88 1564.12,1981.14"/>
    <poly id="313599544" type="landuse.forest" color="140,196,107" fill="1" layer="-3.00" shape="808.47,3057.21 717.22,3098.69 666.60,3118.63 595.25,3144.16 494.04,3171.37 380.40,3182.65 296.09,3186.36 188.69,3184.61 99.80,3180.17 94.35,3181.43 -105.75,3177.74 -195.18,3176.40 -284.69,3178.78 -459.77,3173.64 -524.50,3170.91 -683.91,3168.96 -753.70,3166.52 -796.95,3169.91 -822.45,3175.35 -916.49,3195.27 -925.86,3200.16 -937.81,3205.13 -952.75,3211.78 -972.54,3214.30 -975.21,3229.74 -976.29,3239.22 -971.25,3271.11 -975.21,3296.95 -985.98,3328.18 -993.10,3343.62 -1009.13,3364.17 -1020.16,3383.41 -1035.86,3388.38 -1051.70,3386.37 -1065.80,3383.73 -1081.70,3378.79 -1089.97,3374.87 -1094.81,3366.79 -1070.95,3330.71 -1062.58,3310.12 -1055.92,3291.89 -1024.48,3254.48 -1010.90,3230.87 -1006.41,3221.44 -1008.90,3213.90 -1016.56,3211.13 -1102.37,3211.56 -1124.81,3212.12 -1147.01,3213.73 -1172.05,3220.07 -1193.56,3226.92 -1215.05,3235.51 -1234.78,3243.49 -1258.00,3253.30 -1276.53,3263.00 -1294.46,3273.88 -1311.79,3285.30 -1326.75,3297.86 -1340.55,3309.81 -1354.33,3323.51 -1375.85,3344.10 -1395.19,3365.34 -1409.85,3385.69 -1416.32,3406.79 -1420.72,3433.32 -1417.36,3477.87 -1411.58,3562.38 -1559.09,3564.67 -1558.45,3439.26 -1563.21,3397.01 -1565.86,3373.53 -1612.29,3287.30 -1633.26,3258.17 -1656.19,3226.34 -1718.23,3172.85 -1777.63,3149.71 -1828.62,3140.59 -1946.48,3140.93 -1973.10,3139.76 -2265.38,3126.94 -2659.43,3109.68 -2669.19,3048.65 -2671.07,3036.93 -2671.90,3016.56 -3006.64,2959.22 -3314.59,2941.06 -3278.69,3124.99 -3254.62,3273.26 -3208.16,3485.96 -3198.09,3520.19 -3182.30,3549.05 -3159.01,3629.71 -3134.23,3710.85 -3113.77,3767.42 -3071.57,3884.11 -3013.43,3880.05 -1865.72,3800.05 -1567.45,3700.93 -1568.03,3620.87 -1559.27,3601.44 -1559.09,3564.71 -1411.58,3562.40 -1416.31,3636.94 -1417.37,3653.56 -1433.73,3742.61 -1454.26,3827.64 -1445.40,3832.14 -1421.42,3820.16 -1396.73,3807.83 -1346.75,3791.06 -1319.57,3774.76 -1304.79,3782.64 -1287.10,3789.29 -1284.49,3802.66 -1281.61,3829.46 -1270.63,3852.00 -1259.51,3852.37 -1254.02,3863.34 -1254.25,3881.45 -1240.19,3911.51 -1228.42,3914.78 -1119.63,3881.77 -1078.95,4064.77 -1015.64,4044.16 -1001.34,4167.22 -997.87,4613.47 -1001.25,4737.83 -991.80,4801.25 -998.71,4865.58 -1008.64,4954.47 -1016.25,5012.98 -1023.25,5073.22 -1023.49,5119.91 -1016.97,5123.86 -983.80,5115.61 -959.31,5103.96 -635.57,4998.33 -253.85,4876.64 -156.33,4845.56 -149.97,4843.59 -19.90,4803.54 49.04,4777.78 55.53,4771.70 97.65,4712.53 127.48,4660.34 149.76,4625.13 155.32,4610.43 162.92,4579.94 161.38,4569.22 152.37,4557.14 88.48,4521.57 96.44,4490.96 97.55,4481.58 91.51,4484.32 80.68,4493.52 70.98,4501.39 60.52,4505.54 62.08,4512.64 42.41,4499.20 127.56,4363.92 199.00,4250.43 273.06,4296.83 533.59,4460.10 452.97,4586.20 427.66,4625.52 430.72,4632.46 433.75,4637.65 439.68,4641.62 451.99,4643.13 481.00,4630.89 535.81,4621.64 592.22,4604.21 758.92,4542.59 785.41,4521.07 968.53,4467.10 1224.38,4380.04 1488.19,4286.81 1621.97,4246.29 1620.24,4232.68 1578.41,4013.36 1286.06,4099.63 1264.94,4041.32 1185.53,4068.96 1117.60,3864.76 1136.88,3828.49 1126.51,3809.12 1215.79,3774.76 1130.39,3597.00 1072.88,3514.05 1002.42,3412.43 940.17,3336.13 895.19,3257.79 1043.16,3096.65 1083.23,3048.11 1205.37,2908.54 1335.55,2760.95 1440.04,2718.06 1545.30,2678.21 1619.55,2599.73 1587.48,2539.78 1554.74,2520.71 1501.16,2558.60 1449.82,2599.73 1146.68,2820.48 941.43,2968.99 808.47,3057.21"/>
    <poly id="334469325" type="natural.tree_row" color="140,196,107" fill="0" layer="-4.00" shape="2048.07,2930.47 1845.45,2830.17 1830.58,2816.63"/>
    <poly id="334469326" type="natural.tree_row" color="140,196,107" fill="0" layer="-4.00" shape="1742.36,1305.92 1742.04,1460.48 1741.36,1586.04 1740.38,1703.73 1740.54,1799.37 1742.27,1908.08 1742.52,2025.57 1742.41,2064.59"/>
    <poly id="334469327" type="natural.tree_row" color="140,196,107" fill="0" layer="-4.00" shape="1726.08,2661.16 1787.97,2762.58"/>
    <poly id="334469328" type="natural.tree_row" color="140,196,107" fill="0" layer="-4.00" shape="1731.28,1888.03 1731.03,1733.50 1731.16,1588.43 1731.47,1462.33 1731.90,1361.23"/>
    <poly id="334469330" type="natural.tree_row" color="140,196,107" fill="0" layer="-4.00" shape="1731.03,2065.02 1732.40,1975.05"/>
    <poly id="334469333" type="natural.tree_row" color="140,196,107" fill="0" layer="-4.00" shape="1826.95,2823.86 1841.17,2836.76 2045.41,2937.13"/>
    <poly id="334469334" type="natural.tree_row" color="140,196,107" fill="0" layer="-4.00" shape="1716.88,2589.62 1735.42,2630.86 1808.79,2746.19"/>
    <poly id="334469335" type="natural.tree_row" color="140,196,107" fill="0" layer="-4.00" shape="1794.26,2759.49 1727.21,2650.01"/>
    <poly id="360414559" type="natural.wood" color="140,196,107" fill="1" layer="-4.00" shape="1675.08,2551.85 1641.30,2497.07 1638.65,2483.18 1640.83,2472.59 1645.39,2461.62 1655.74,2450.20 1733.47,2397.35 1733.45,2431.69 1723.49,2480.85 1709.82,2514.45 1694.58,2537.53 1685.99,2551.64 1680.91,2553.43 1675.08,2551.85"/>
    <poly id="36825226" type="building.yes" color="255,230,230" fill="1" layer="-1.00" shape="2109.81,2783.05 2125.13,2770.10 2095.91,2735.71 2080.59,2748.65 2109.81,2783.05"/>
    <poly id="36825342" type="leisure.park" color="207,245,201" fill="1" layer="-2.00" shape="2000.12,2539.71 2010.61,2542.34 2009.56,2556.10 1993.73,2572.89 1967.99,2588.08 1949.71,2587.69 1941.05,2582.26 1929.46,2576.67 1921.76,2575.54 1917.71,2574.87 1907.18,2574.85 1894.81,2576.87 1888.29,2566.92 1909.22,2550.75 1912.31,2548.36 1914.57,2544.96 1942.74,2550.62 1971.86,2552.24 2000.12,2539.71"/>
    <poly id="36868298" type="landuse.grass" color="194,194,130" fill="1" layer="-3.00" shape="1724.96,1953.45 1725.48,1447.44 1726.01,1371.26 1724.80,1359.99 1603.25,1333.93 1608.34,1304.59 1610.58,1289.02 1607.89,1287.53 1557.55,1276.46 1575.21,1192.90 1610.55,1213.40 1612.29,1210.50 1613.94,1207.37 1587.58,1191.50 1560.58,1175.86 1544.50,1167.26 1527.88,1158.80 1511.94,1151.52 1495.24,1144.79 1479.26,1141.43 1463.43,1140.85 1449.02,1137.31 1437.72,1136.58 1402.34,1136.00 1358.84,1135.44 1318.54,1134.14 1296.08,1133.76 1278.38,1133.87 1259.60,1135.48 1247.33,1137.32 1235.65,1140.38 1214.12,1148.07 1197.58,1156.77 1179.11,1168.42 1162.70,1182.21 1154.46,1190.66 1147.19,1199.48 1133.81,1218.53 1119.65,1245.65 1116.07,1253.58 1112.94,1258.15 1105.08,1264.27 1087.68,1344.00 1081.24,1374.49 1070.34,1385.79 1018.16,1411.92 908.03,1477.88 1125.21,1779.04 1301.80,2032.75 1530.20,2346.35 1526.90,2357.50 1534.93,2368.50 1557.54,2360.48 1553.16,2319.40 1560.06,2310.27 1587.75,2283.79 1634.31,2245.94 1686.18,2211.84 1704.91,2209.86 1702.30,2189.95 1722.74,2179.55 1721.49,2077.97 1721.25,1974.21 1724.96,1953.45"/>
    <poly id="38155366" type="landuse.grass" color="194,194,130" fill="1" layer="-3.00" shape="1534.93,2368.50 1557.54,2360.48 1558.54,2372.82 1579.92,2395.82 1615.90,2402.76 1622.54,2402.63 1643.55,2396.96 1696.29,2361.04 1719.20,2343.86 1731.15,2295.75 1733.98,2260.66 1732.36,2237.35 1727.42,2224.02 1717.30,2215.46 1704.91,2209.86 1756.03,2206.97 1758.41,2212.07 1781.06,2260.78 1789.89,2285.00 1814.75,2269.34 1859.38,2246.29 1893.80,2233.19 1931.41,2218.05 2031.45,2185.18 2108.38,2167.93 2171.98,2157.38 2282.37,2145.33 2386.36,2135.16 2506.62,2118.85 2612.65,2107.77 2644.27,2104.36 2748.32,2090.53 2911.21,2068.73 3053.09,2050.27 3258.74,2024.47 3297.86,2019.06 3334.65,2014.85 3391.94,2011.43 3400.61,2005.42 3417.18,1984.09 3425.25,1977.52 3508.43,1981.19 3565.23,1981.88 3569.85,1978.86 3575.84,1954.82 3581.10,1954.72 3624.59,1963.82 3652.67,1963.29 3664.14,1950.81 3690.34,1943.30 3698.41,1936.73 3701.80,2005.57 3702.66,2019.99 3674.92,2018.43 3672.68,2016.85 3513.21,2010.90 3402.86,2017.47 3300.86,2030.91 3183.43,2045.83 3030.89,2065.11 2870.95,2085.71 2731.48,2103.20 2567.22,2122.92 2416.86,2143.35 2262.74,2161.72 2148.69,2178.73 2055.39,2197.49 1958.95,2225.87 1862.96,2266.73 1785.16,2308.41 1712.35,2355.45 1616.98,2428.48 1546.02,2479.59 1537.76,2487.16 1525.90,2485.41 1538.78,2457.10 1544.68,2429.55 1543.00,2402.73 1534.93,2368.50"/>
    <poly id="416561684" type="building.roof" color="255,230,230" fill="1" layer="-1.00" shape="2107.34,2382.15 2093.61,2355.77 2063.80,2370.02 2077.16,2396.22 2107.34,2382.15"/>
    <poly id="43395967" type="natural.water" color="181,209,209" fill="1" layer="-4.00" shape="1960.99,2556.94 1959.36,2569.04 1944.72,2567.33 1946.01,2555.80 1960.99,2556.94"/>
    <poly id="502330841" type="landuse.grass" color="194,194,130" fill="1" layer="-3.00" shape="2242.54,2735.68 2254.37,2742.39 2268.39,2758.17 2314.56,2837.38 2225.72,2880.51 2246.06,2921.47 2293.76,2898.94 2312.21,2943.27 2258.44,2971.01 2238.54,2982.60 2213.00,2987.71 2198.96,2989.72 2110.11,2944.18 2105.74,2935.51 2102.19,2931.39 2119.88,2891.09 2167.50,2780.17 2175.31,2767.80 2190.84,2757.65 2242.54,2735.68"/>
    <poly id="518495164" type="landuse.forest" color="140,196,107" fill="1" layer="-3.00" shape="802.29,3012.12 913.01,2937.07 1124.97,2785.15 1525.90,2485.41 1526.97,2481.85 1538.78,2457.10 1544.68,2429.55 1543.00,2402.73 1534.93,2368.50 1526.90,2357.50 1485.37,2389.25 1446.00,2411.03 1439.99,2402.97 1438.23,2372.65 1432.55,2328.48 1348.70,2329.67 1346.95,2225.16 1411.97,2225.45 1429.62,2248.95 1514.11,2361.83 1530.20,2346.35 1301.80,2032.75 1276.76,2061.49 1269.42,2323.19 1264.86,2329.12 1211.01,2329.00 1205.45,2404.42 1202.79,2478.62 1205.43,2524.11 1137.12,2532.43 1131.40,2539.55 1140.08,2594.85 988.29,2690.68 942.19,2711.36 891.91,2743.87 847.02,2779.87 774.69,2825.54 802.29,3012.12"/>
    <poly id="518495167" type="building.yes" color="255,230,230" fill="1" layer="-1.00" shape="1407.08,2753.62 1431.38,2825.62 1485.96,2807.29 1461.67,2735.29 1407.08,2753.62"/>
    <poly id="535179280" type="building.roof" color="255,230,230" fill="1" layer="-1.00" shape="2237.36,2431.63 2252.44,2436.77 2257.57,2421.79 2242.49,2416.66 2237.36,2431.63"/>
    <poly id="585985726" type="landuse.grass" color="194,194,130" fill="1" layer="-3.00" shape="1905.11,2818.01 1967.19,2871.18 1970.79,2867.45 1987.63,2882.91 1986.16,2884.25 1927.98,2856.14 1894.51,2840.03 1889.24,2834.37 1905.11,2818.01"/>
    <poly id="585985727" type="natural.water" color="181,209,209" fill="1" layer="-4.00" shape="1927.79,2853.77 1920.50,2849.10 1914.66,2844.33 1909.34,2841.03 1904.66,2838.68 1902.46,2835.61 1901.54,2832.15 1903.35,2827.79 1906.24,2825.98 1909.46,2824.64 1912.86,2826.89 1919.33,2832.60 1927.53,2840.01 1933.02,2845.74 1933.80,2848.41 1933.06,2850.93 1931.75,2852.85 1929.51,2853.92 1927.79,2853.77"/>
    <poi id="1259492032" type="shop.car_repair" color="237,199,255" layer="4.00" x="1925.63" y="2686.93"/>
    <poi id="1530284443" type="amenity.atm" color="237,199,199" layer="4.00" x="2105.14" y="2385.30"/>
    <poi id="2289526576" type="amenity.veterinary" color="237,199,199" layer="4.00" x="1641.51" y="2791.78"/>
    <poi id="252931180" type="amenity.fuel" color="237,199,199" layer="4.00" x="1876.24" y="2688.88"/>
    <poi id="259767583" type="amenity.fast_food" color="237,199,199" layer="4.00" x="1791.24" y="2862.79"/>
    <poi id="2636548166" type="shop.chemist" color="237,199,255" layer="4.00" x="2097.99" y="2650.16"/>
    <poi id="2669273727" type="tourism.information" color="207,245,201" layer="3.00" x="1853.60" y="2666.39"/>
    <poi id="2714074766" type="amenity.post_box" color="237,199,199" layer="4.00" x="2001.60" y="2576.63"/>
    <poi id="2726646710" type="amenity.bicycle_parking" color="237,199,199" layer="4.00" x="2079.32" y="2332.70"/>
    <poi id="2726646711" type="amenity.bicycle_parking" color="237,199,199" layer="4.00" x="2051.37" y="2345.55"/>
    <poi id="2726646712" type="amenity.bicycle_parking" color="237,199,199" layer="4.00" x="2009.28" y="2534.16"/>
    <poi id="2726646713" type="amenity.bicycle_parking" color="237,199,199" layer="4.00" x="1999.44" y="2563.20"/>
    <poi id="3512929246" type="amenity.toilets" color="237,199,199" layer="4.00" x="1642.85" y="2770.74"/>
    <poi id="365083575" type="amenity.fast_food" color="237,199,199" layer="4.00" x="1950.28" y="2613.31"/>
    <poi id="3845731125" type="shop.toys" color="237,199,255" layer="4.00" x="2060.62" y="2647.60"/>
    <poi id="3845758159" type="shop.electronics" color="237,199,255" layer="4.00" x="2042.74" y="2630.43"/>