<?xml version="1.0" encoding="UTF-8"?>

<!-- generated on Thu 07 Jun 2018 10:27:52 AM CEST by Eclipse SUMO netedit Version aa25bb9
<configuration xmlns:xsi="http://www.w3.org/2001/XMLSchema-instance" xsi:noNamespaceSchemaLocation="http://sumo.dlr.de/xsd/netconvertConfiguration.xsd">

    <input>
        <sumo-net-file value="osm.net.xml"/>
    </input>

    <output>
        <output-file value="osm.net.xml"/>
        <output.street-names value="true"/>
    </output>

    <processing>
        <no-turnarounds value="true"/>
        <offset.disable-normalization value="true"/>
        <lefthand value="false"/>
        <junctions.corner-detail value="5"/>
        <rectangular-lane-cut value="false"/>
        <walkingareas value="false"/>
    </processing>

    <visualisation>
        <registry-viewport value="true"/>
    </visualisation>

</configuration>
-->

<net version="0.27" junctionCornerDetail="5" xmlns:xsi="http://www.w3.org/2001/XMLSchema-instance" xsi:noNamespaceSchemaLocation="http://sumo.dlr.de/xsd/net_file.xsd">

    <location netOffset="-402990.32,-5794389.48" convBoundary="330.80,0.00,2817.12,3173.89" origBoundary="13.576712,52.291597,13.630952,52.319872" projParameter="+proj=utm +zone=33 +ellps=WGS84 +datum=WGS84 +units=m +no_defs"/>

    <type id="highway.bridleway" priority="1" numLanes="1" speed="2.78" allow="pedestrian" oneway="1" width="2.00"/>
    <type id="highway.bus_guideway" priority="1" numLanes="1" speed="27.78" allow="bus" oneway="1"/>
    <type id="highway.cycleway" priority="1" numLanes="1" speed="8.33" allow="bicycle" oneway="0" width="1.00"/>
    <type id="highway.footway" priority="1" numLanes="1" speed="2.78" allow="pedestrian" oneway="1" width="2.00"/>
    <type id="highway.ford" priority="1" numLanes="1" speed="2.78" allow="army" oneway="0"/>
    <type id="highway.living_street" priority="3" numLanes="1" speed="2.78" disallow="tram rail_urban rail rail_electric ship" oneway="0"/>
    <type id="highway.motorway" priority="13" numLanes="2" speed="44.44" allow="private emergency authority army vip passenger hov taxi bus coach delivery truck trailer motorcycle evehicle custom1 custom2" oneway="1"/>
    <type id="highway.motorway_link" priority="12" numLanes="1" speed="22.22" allow="private emergency authority army vip passenger hov taxi bus coach delivery truck trailer motorcycle evehicle custom1 custom2" oneway="1"/>
    <type id="highway.path" priority="1" numLanes="1" speed="2.78" allow="bicycle pedestrian" oneway="1" width="2.00"/>
    <type id="highway.pedestrian" priority="1" numLanes="1" speed="2.78" allow="pedestrian" oneway="1" width="2.00"/>
    <type id="highway.primary" priority="9" numLanes="2" speed="27.78" disallow="tram rail_urban rail rail_electric ship" oneway="0"/>
    <type id="highway.primary_link" priority="8" numLanes="1" speed="22.22" disallow="tram rail_urban rail rail_electric ship" oneway="0"/>
    <type id="highway.raceway" priority="14" numLanes="2" speed="83.33" allow="vip" oneway="0"/>
    <type id="highway.residential" priority="4" numLanes="1" speed="13.89" disallow="tram rail_urban rail rail_electric ship" oneway="0"/>
    <type id="highway.secondary" priority="7" numLanes="2" speed="27.78" disallow="tram rail_urban rail rail_electric ship" oneway="0"/>
    <type id="highway.secondary_link" priority="6" numLanes="1" speed="22.22" disallow="tram rail_urban rail rail_electric ship" oneway="0"/>
    <type id="highway.service" priority="2" numLanes="1" speed="5.56" allow="delivery bicycle pedestrian" oneway="0"/>
    <type id="highway.services" priority="1" numLanes="1" speed="8.33" disallow="tram rail_urban rail rail_electric ship" oneway="0"/>
    <type id="highway.stairs" priority="1" numLanes="1" speed="1.39" allow="pedestrian" oneway="1" width="2.00"/>
    <type id="highway.step" priority="1" numLanes="1" speed="1.39" allow="pedestrian" oneway="1" width="2.00"/>
    <type id="highway.steps" priority="1" numLanes="1" speed="1.39" allow="pedestrian" oneway="1" width="2.00"/>
    <type id="highway.tertiary" priority="6" numLanes="1" speed="22.22" disallow="tram rail_urban rail rail_electric ship" oneway="0"/>
    <type id="highway.tertiary_link" priority="5" numLanes="1" speed="22.22" disallow="tram rail_urban rail rail_electric ship" oneway="0"/>
    <type id="highway.track" priority="1" numLanes="1" speed="5.56" disallow="tram rail_urban rail rail_electric ship" oneway="0"/>
    <type id="highway.trunk" priority="11" numLanes="2" speed="27.78" disallow="tram rail_urban rail rail_electric bicycle pedestrian ship" oneway="0"/>
    <type id="highway.trunk_link" priority="10" numLanes="1" speed="22.22" disallow="tram rail_urban rail rail_electric bicycle pedestrian ship" oneway="0"/>
    <type id="highway.unclassified" priority="5" numLanes="1" speed="13.89" disallow="tram rail_urban rail rail_electric ship" oneway="0"/>
    <type id="highway.unsurfaced" priority="1" numLanes="1" speed="8.33" disallow="tram rail_urban rail rail_electric ship" oneway="0"/>
    <type id="railway.light_rail" priority="15" numLanes="1" speed="27.78" allow="rail_urban" oneway="1"/>
    <type id="railway.preserved" priority="15" numLanes="1" speed="27.78" allow="rail" oneway="1"/>
    <type id="railway.rail" priority="15" numLanes="1" speed="83.33" allow="rail rail_electric" oneway="1"/>
    <type id="railway.subway" priority="15" numLanes="1" speed="27.78" allow="rail_urban" oneway="1"/>
    <type id="railway.tram" priority="15" numLanes="1" speed="13.89" allow="tram" oneway="1"/>

    <edge id=":1239101644_0" function="internal">
        <lane id=":1239101644_0_0" index="0" allow="delivery bicycle pedestrian" speed="5.56" length="8.31" shape="2037.28,2275.95 2036.95,2274.26 2037.64,2272.81 2039.34,2271.61 2042.07,2270.66"/>
    </edge>
    <edge id=":1239101644_1" function="internal">
        <lane id=":1239101644_1_0" index="0" allow="delivery bicycle pedestrian" speed="5.56" length="4.67" shape="2037.28,2275.95 2037.50,2274.53 2038.06,2273.83 2038.96,2273.86 2040.19,2274.61"/>
    </edge>
    <edge id=":1239101644_2" function="internal">
        <lane id=":1239101644_2_0" index="0" allow="delivery bicycle pedestrian" speed="5.56" length="9.55" shape="2032.01,2269.99 2041.27,2267.56"/>
        <lane id=":1239101644_2_1" index="1" allow="delivery bicycle pedestrian" speed="5.56" length="9.55" shape="2032.85,2273.08 2042.07,2270.66"/>
    </edge>
    <edge id=":1239101644_4" function="internal">
        <lane id=":1239101644_4_0" index="0" allow="delivery bicycle pedestrian" speed="5.56" length="8.14" shape="2032.85,2273.08 2035.52,2272.57 2037.63,2272.66 2039.18,2273.34 2040.19,2274.61"/>
    </edge>
    <edge id=":1500986369_0" function="internal">
        <lane id=":1500986369_0_0" index="0" allow="delivery bicycle pedestrian" speed="5.56" length="4.67" shape="1636.16,1977.77 1635.44,1979.02 1634.67,1979.48 1633.84,1979.13 1632.96,1977.99"/>
    </edge>
    <edge id=":1643085234_0" function="internal">
        <lane id=":1643085234_0_0" index="0" allow="delivery bicycle pedestrian" speed="5.56" length="11.79" shape="1899.01,2576.18 1895.99,2576.89 1893.79,2577.93 1891.65,2579.47 1888.80,2581.70"/>
    </edge>
    <edge id=":1643085234_1" function="internal">
        <lane id=":1643085234_1_0" index="0" allow="delivery bicycle pedestrian" speed="5.56" length="13.95" shape="1898.47,2571.44 1895.84,2573.44 1893.33,2574.94 1890.49,2576.63 1886.87,2579.15"/>
    </edge>
    <edge id=":1643085234_2" function="internal">
        <lane id=":1643085234_2_0" index="0" allow="delivery bicycle pedestrian" speed="5.56" length="13.49" shape="1895.69,2569.11 1893.98,2571.92 1892.31,2574.22 1890.13,2576.48 1886.87,2579.15"/>
    </edge>
    <edge id=":1643085241_0" function="internal">
        <lane id=":1643085241_0_0" index="0" allow="delivery bicycle pedestrian" speed="5.56" length="5.17" shape="1881.59,2591.24 1880.53,2590.23 1879.42,2589.75 1878.27,2589.81 1877.07,2590.40"/>
    </edge>
    <edge id=":1643085241_1" function="internal">
        <lane id=":1643085241_1_0" index="0" allow="delivery bicycle pedestrian" speed="5.56" length="4.67" shape="1881.59,2591.24 1881.46,2589.81 1881.83,2589.00 1882.70,2588.81 1884.08,2589.24"/>
    </edge>
    <edge id=":1643085241_2" function="internal">
        <lane id=":1643085241_2_0" index="0" allow="delivery bicycle pedestrian" speed="5.56" length="5.03" shape="1884.61,2584.89 1883.64,2585.87 1883.23,2586.93 1883.37,2588.05 1884.08,2589.24"/>
    </edge>
    <edge id=":1643085241_3" function="internal">
        <lane id=":1643085241_3_0" index="0" allow="delivery bicycle pedestrian" speed="5.56" length="9.28" shape="1884.61,2584.89 1877.07,2590.40"/>
        <lane id=":1643085241_3_1" index="1" allow="delivery bicycle pedestrian" speed="5.56" length="9.28" shape="1882.68,2582.34 1875.23,2587.78"/>
    </edge>
    <edge id=":1643085241_5" function="internal">
        <lane id=":1643085241_5_0" index="0" allow="delivery bicycle pedestrian" speed="5.56" length="10.54" shape="1875.50,2583.59 1877.64,2584.05 1879.78,2585.14 1881.92,2586.87 1884.08,2589.24"/>
    </edge>
    <edge id=":1643085241_6" function="internal">
        <lane id=":1643085241_6_0" index="0" allow="delivery bicycle pedestrian" speed="5.56" length="7.15" shape="1875.50,2583.59 1877.44,2583.98 1878.04,2584.81 1877.30,2586.08 1875.23,2587.78"/>
    </edge>
    <edge id=":1688750990_0" function="internal">
        <lane id=":1688750990_0_0" index="0" allow="delivery bicycle pedestrian" speed="5.56" length="12.25" shape="2288.09,2225.35 2291.63,2225.73 2293.76,2227.15 2294.47,2229.61 2293.76,2233.11"/>
    </edge>
    <edge id=":1688750990_1" function="internal">
        <lane id=":1688750990_1_0" index="0" allow="delivery bicycle pedestrian" speed="5.56" length="4.67" shape="2290.75,2232.04 2291.90,2231.18 2292.79,2231.07 2293.41,2231.71 2293.76,2233.11"/>
    </edge>
    <edge id=":1688751025_0" function="internal">
        <lane id=":1688751025_0_0" index="0" allow="delivery bicycle pedestrian" speed="5.56" length="8.21" shape="2006.83,2284.89 2006.47,2283.25 2007.12,2281.80 2008.76,2280.53 2011.41,2279.44"/>
    </edge>
    <edge id=":1688751025_1" function="internal">
        <lane id=":1688751025_1_0" index="0" allow="delivery bicycle pedestrian" speed="5.56" length="4.67" shape="2006.83,2284.89 2007.01,2283.46 2007.55,2282.75 2008.45,2282.75 2009.69,2283.47"/>
    </edge>
    <edge id=":1688751025_2" function="internal">
        <lane id=":1688751025_2_0" index="0" allow="delivery bicycle pedestrian" speed="5.56" length="9.48" shape="2001.41,2279.25 2010.45,2276.39"/>
        <lane id=":1688751025_2_1" index="1" allow="delivery bicycle pedestrian" speed="5.56" length="9.48" shape="2002.38,2282.30 2011.41,2279.44"/>
    </edge>
    <edge id=":1688751025_4" function="internal">
        <lane id=":1688751025_4_0" index="0" allow="delivery bicycle pedestrian" speed="5.56" length="8.06" shape="2002.38,2282.30 2005.02,2281.68 2007.12,2281.67 2008.68,2282.27 2009.69,2283.47"/>
    </edge>
    <edge id=":1688751071_0" function="internal">
        <lane id=":1688751071_0_0" index="0" allow="delivery bicycle pedestrian" speed="5.56" length="5.05" shape="2044.73,2361.69 2042.52,2357.16"/>
    </edge>
    <edge id=":1688751071_1" function="internal">
        <lane id=":1688751071_1_0" index="0" allow="delivery bicycle pedestrian" speed="5.56" length="2.34" shape="2044.73,2361.69 2044.93,2360.26 2045.48,2359.56"/>
    </edge>
    <edge id=":1688751071_4" function="internal">
        <lane id=":1688751071_4_0" index="0" speed="5.56" length="2.34" shape="2045.48,2359.56 2046.37,2359.57 2047.62,2360.30"/>
    </edge>
    <edge id=":1688751071_2" function="internal">
        <lane id=":1688751071_2_0" index="0" allow="delivery bicycle pedestrian" speed="5.56" length="5.07" shape="2045.39,2355.74 2047.62,2360.30"/>
    </edge>
    <edge id=":1688751071_3" function="internal">
        <lane id=":1688751071_3_0" index="0" allow="delivery bicycle pedestrian" speed="5.56" length="2.34" shape="2045.39,2355.74 2045.20,2357.17 2044.66,2357.88"/>
    </edge>
    <edge id=":1688751071_5" function="internal">
        <lane id=":1688751071_5_0" index="0" speed="5.56" length="2.34" shape="2044.66,2357.88 2043.77,2357.88 2042.52,2357.16"/>
    </edge>
    <edge id=":1688751217_0" function="internal">
        <lane id=":1688751217_0_0" index="0" allow="delivery bicycle pedestrian" speed="5.56" length="8.88" shape="1883.73,2712.67 1881.60,2714.23 1880.17,2715.34 1878.80,2716.51 1876.86,2718.29"/>
    </edge>
    <edge id=":1688751217_1" function="internal">
        <lane id=":1688751217_1_0" index="0" allow="delivery bicycle pedestrian" speed="5.56" length="10.29" shape="1883.73,2712.67 1881.23,2714.00 1878.92,2714.20 1876.81,2713.26 1874.88,2711.19"/>
    </edge>
    <edge id=":1688751217_2" function="internal">
        <lane id=":1688751217_2_0" index="0" allow="delivery bicycle pedestrian" speed="5.56" length="4.67" shape="1883.73,2712.67 1882.29,2712.74 1881.49,2712.33 1881.34,2711.45 1881.84,2710.09"/>
    </edge>
    <edge id=":1688751217_3" function="internal">
        <lane id=":1688751217_3_0" index="0" allow="delivery bicycle pedestrian" speed="5.56" length="5.03" shape="1877.51,2709.37 1878.45,2710.38 1879.49,2710.84 1880.61,2710.74 1881.84,2710.09"/>
    </edge>
    <edge id=":1688751217_4" function="internal">
        <lane id=":1688751217_4_0" index="0" allow="delivery bicycle pedestrian" speed="5.56" length="9.92" shape="1877.51,2709.37 1878.79,2711.83 1879.11,2714.13 1878.46,2716.29 1876.86,2718.29"/>
    </edge>
    <edge id=":1688751217_5" function="internal">
        <lane id=":1688751217_5_0" index="0" allow="delivery bicycle pedestrian" speed="5.56" length="4.67" shape="1877.51,2709.37 1877.54,2710.81 1877.11,2711.59 1876.22,2711.72 1874.88,2711.19"/>
    </edge>
    <edge id=":1688751217_6" function="internal">
        <lane id=":1688751217_6_0" index="0" allow="delivery bicycle pedestrian" speed="5.56" length="5.26" shape="1874.69,2715.94 1875.50,2714.91 1875.80,2713.77 1875.59,2712.53 1874.88,2711.19"/>
    </edge>
    <edge id=":1688751217_7" function="internal">
        <lane id=":1688751217_7_0" index="0" allow="delivery bicycle pedestrian" speed="5.56" length="9.24" shape="1874.69,2715.94 1876.71,2714.09 1878.14,2712.86 1879.62,2711.72 1881.84,2710.09"/>
    </edge>
    <edge id=":1688751217_8" function="internal">
        <lane id=":1688751217_8_0" index="0" allow="delivery bicycle pedestrian" speed="5.56" length="4.67" shape="1874.69,2715.94 1876.11,2715.71 1876.95,2716.03 1877.20,2716.89 1876.86,2718.29"/>
    </edge>
    <edge id=":1688751222_0" function="internal">
        <lane id=":1688751222_0_0" index="0" disallow="tram rail_urban rail rail_electric ship" speed="9.73" length="6.43" shape="1867.80,2726.65 1866.21,2728.24 1865.09,2729.64 1864.45,2730.84 1864.27,2731.86"/>
    </edge>
    <edge id=":1688751222_1" function="internal">
        <lane id=":1688751222_1_0" index="0" allow="delivery bicycle pedestrian" speed="5.56" length="4.73" shape="1867.80,2726.65 1866.34,2726.65 1865.56,2726.19 1865.45,2725.29 1866.01,2723.95"/>
    </edge>
    <edge id=":1688751222_2" function="internal">
        <lane id=":1688751222_2_0" index="0" allow="delivery bicycle pedestrian" speed="9.73" length="5.38" shape="1862.00,2722.76 1862.75,2724.20 1863.67,2724.88 1864.76,2724.80 1866.01,2723.95"/>
    </edge>
    <edge id=":1688751222_3" function="internal">
        <lane id=":1688751222_3_0" index="0" disallow="tram rail_urban rail rail_electric ship" speed="13.89" length="8.98" shape="1862.00,2722.76 1862.99,2725.38 1863.63,2727.20 1864.01,2729.08 1864.27,2731.86"/>
        <lane id=":1688751222_3_1" index="1" disallow="tram rail_urban rail rail_electric ship" speed="13.89" length="8.98" shape="1858.99,2723.87 1859.90,2726.23 1860.48,2727.88 1860.84,2729.57 1861.08,2732.07"/>
    </edge>
    <edge id=":1690138002_0" function="internal">
        <lane id=":1690138002_0_0" index="0" allow="delivery bicycle pedestrian" speed="5.56" length="8.71" shape="2209.81,2241.67 2209.41,2239.76 2210.12,2238.27 2211.94,2237.20 2214.86,2236.56"/>
    </edge>
    <edge id=":1690138002_1" function="internal">
        <lane id=":1690138002_1_0" index="0" allow="delivery bicycle pedestrian" speed="5.56" length="4.67" shape="2209.81,2241.67 2210.05,2240.25 2210.61,2239.56 2211.51,2239.59 2212.73,2240.36"/>
    </edge>
    <edge id=":1690138002_2" function="internal">
        <lane id=":1690138002_2_0" index="0" allow="delivery bicycle pedestrian" speed="5.56" length="9.70" shape="2204.84,2234.58 2214.47,2233.38"/>
        <lane id=":1690138002_2_1" index="1" allow="delivery bicycle pedestrian" speed="5.56" length="9.70" shape="2205.24,2237.75 2214.86,2236.56"/>
    </edge>
    <edge id=":1690138002_4" function="internal">
        <lane id=":1690138002_4_0" index="0" allow="delivery bicycle pedestrian" speed="5.56" length="8.49" shape="2205.24,2237.75 2207.95,2237.64 2210.10,2238.03 2211.70,2238.94 2212.73,2240.36"/>
    </edge>
    <edge id=":1690138007_0" function="internal">
        <lane id=":1690138007_0_0" index="0" allow="delivery bicycle pedestrian" speed="5.56" length="7.67" shape="2230.88,2277.39 2228.63,2277.59 2227.10,2277.91 2225.64,2278.50 2223.59,2279.49"/>
    </edge>
    <edge id=":1690138007_1" function="internal">
        <lane id=":1690138007_1_0" index="0" allow="delivery bicycle pedestrian" speed="5.56" length="9.30" shape="2230.88,2277.39 2228.63,2277.20 2226.68,2276.32 2225.04,2274.75 2223.70,2272.49"/>
    </edge>
    <edge id=":1690138007_2" function="internal">
        <lane id=":1690138007_2_0" index="0" allow="delivery bicycle pedestrian" speed="5.56" length="4.67" shape="2230.88,2277.39 2229.63,2276.67 2229.18,2275.90 2229.52,2275.07 2230.67,2274.19"/>
    </edge>
    <edge id=":1690138007_3" function="internal">
        <lane id=":1690138007_3_0" index="0" allow="delivery bicycle pedestrian" speed="5.56" length="5.40" shape="2226.62,2271.17 2227.41,2272.56 2228.35,2273.53 2229.44,2274.07 2230.67,2274.19"/>
    </edge>
    <edge id=":1690138007_4" function="internal">
        <lane id=":1690138007_4_0" index="0" allow="delivery bicycle pedestrian" speed="5.56" length="10.03" shape="2226.62,2271.17 2227.38,2273.80 2227.13,2276.07 2225.87,2277.96 2223.59,2279.49"/>
    </edge>
    <edge id=":1690138007_5" function="internal">
        <lane id=":1690138007_5_0" index="0" allow="delivery bicycle pedestrian" speed="5.56" length="4.67" shape="2226.62,2271.17 2226.38,2272.59 2225.82,2273.29 2224.93,2273.25 2223.70,2272.49"/>
    </edge>
    <edge id=":1690138007_6" function="internal">
        <lane id=":1690138007_6_0" index="0" allow="delivery bicycle pedestrian" speed="5.56" length="4.97" shape="2222.20,2276.60 2223.33,2275.85 2223.96,2274.91 2224.08,2273.79 2223.70,2272.49"/>
    </edge>
    <edge id=":1690138007_7" function="internal">
        <lane id=":1690138007_7_0" index="0" allow="delivery bicycle pedestrian" speed="5.56" length="8.90" shape="2222.20,2276.60 2224.58,2275.46 2226.28,2274.79 2228.05,2274.43 2230.67,2274.19"/>
    </edge>
    <edge id=":1690138007_8" function="internal">
        <lane id=":1690138007_8_0" index="0" allow="delivery bicycle pedestrian" speed="5.56" length="4.67" shape="2222.20,2276.60 2223.63,2276.80 2224.34,2277.35 2224.33,2278.25 2223.59,2279.49"/>
    </edge>
    <edge id=":1690138016_0" function="internal">
        <lane id=":1690138016_0_0" index="0" allow="delivery bicycle pedestrian" speed="5.56" length="9.30" shape="2234.71,2409.53 2225.95,2406.41"/>
    </edge>
    <edge id=":1690138016_1" function="internal">
        <lane id=":1690138016_1_0" index="0" allow="delivery bicycle pedestrian" speed="5.56" length="10.11" shape="2234.71,2409.53 2232.28,2408.22 2230.84,2406.44 2230.39,2404.19 2230.94,2401.48"/>
    </edge>
    <edge id=":1690138016_2" function="internal">
        <lane id=":1690138016_2_0" index="0" allow="delivery bicycle pedestrian" speed="5.56" length="4.67" shape="2234.71,2409.53 2233.86,2408.36 2233.76,2407.48 2234.41,2406.86 2235.81,2406.53"/>
    </edge>
    <edge id=":1690138016_3" function="internal">
        <lane id=":1690138016_3_0" index="0" allow="delivery bicycle pedestrian" speed="5.56" length="5.00" shape="2233.95,2402.54 2233.68,2403.89 2233.90,2405.00 2234.61,2405.88 2235.81,2406.53"/>
    </edge>
    <edge id=":1690138016_4" function="internal">
        <lane id=":1690138016_4_0" index="0" allow="delivery bicycle pedestrian" speed="5.56" length="10.12" shape="2233.95,2402.54 2232.67,2405.00 2230.91,2406.46 2228.67,2406.93 2225.95,2406.41"/>
    </edge>
    <edge id=":1690138016_5" function="internal">
        <lane id=":1690138016_5_0" index="0" allow="delivery bicycle pedestrian" speed="5.56" length="4.67" shape="2233.95,2402.54 2232.80,2403.41 2231.91,2403.52 2231.29,2402.88 2230.94,2401.48"/>
    </edge>
    <edge id=":1690138016_6" function="internal">
        <lane id=":1690138016_6_0" index="0" allow="delivery bicycle pedestrian" speed="5.56" length="4.99" shape="2226.99,2403.39 2228.33,2403.64 2229.44,2403.41 2230.30,2402.69 2230.94,2401.48"/>
    </edge>
    <edge id=":1690138016_7" function="internal">
        <lane id=":1690138016_7_0" index="0" allow="delivery bicycle pedestrian" speed="5.56" length="9.37" shape="2226.99,2403.39 2235.81,2406.53"/>
    </edge>
    <edge id=":1690138016_8" function="internal">
        <lane id=":1690138016_8_0" index="0" allow="delivery bicycle pedestrian" speed="5.56" length="4.67" shape="2226.99,2403.39 2227.86,2404.53 2227.98,2405.42 2227.34,2406.05 2225.95,2406.41"/>
    </edge>
    <edge id=":1690138018_0" function="internal">
        <lane id=":1690138018_0_0" index="0" allow="delivery bicycle pedestrian" speed="5.56" length="4.67" shape="2271.35,2419.61 2272.20,2420.77 2272.30,2421.66 2271.65,2422.28 2270.25,2422.61"/>
    </edge>
    <edge id=":1763285717_0" function="internal">
        <lane id=":1763285717_0_0" index="0" disallow="tram rail_urban rail rail_electric ship" speed="19.44" length="0.30" shape="1413.08,2719.75 1412.80,2719.87"/>
    </edge>
    <edge id=":1763285717_1" function="internal">
        <lane id=":1763285717_1_0" index="0" disallow="tram rail_urban rail rail_electric ship" speed="19.44" length="2.34" shape="1413.08,2719.75 1411.67,2719.47 1410.99,2718.89"/>
    </edge>
    <edge id=":1763285717_4" function="internal">
        <lane id=":1763285717_4_0" index="0" speed="19.44" length="2.34" shape="1410.99,2718.89 1411.05,2717.99 1411.85,2716.80"/>
    </edge>
    <edge id=":1763285717_2" function="internal">
        <lane id=":1763285717_2_0" index="0" disallow="tram rail_urban rail rail_electric ship" speed="19.44" length="0.29" shape="1411.58,2716.91 1411.85,2716.80"/>
    </edge>
    <edge id=":1763285717_3" function="internal">
        <lane id=":1763285717_3_0" index="0" disallow="tram rail_urban rail rail_electric ship" speed="19.44" length="2.34" shape="1411.58,2716.91 1413.00,2717.19 1413.67,2717.78"/>
    </edge>
    <edge id=":1763285717_5" function="internal">
        <lane id=":1763285717_5_0" index="0" speed="19.44" length="2.34" shape="1413.67,2717.78 1413.61,2718.67 1412.80,2719.87"/>
    </edge>
    <edge id=":1763285718_0" function="internal">
        <lane id=":1763285718_0_0" index="0" disallow="tram rail_urban rail rail_electric ship" speed="22.22" length="4.67" shape="978.89,3070.02 977.50,3070.39 976.63,3070.16 976.30,3069.33 976.49,3067.90"/>
    </edge>
    <edge id=":1931111027_0" function="internal">
        <lane id=":1931111027_0_0" index="0" allow="bicycle" speed="8.33" length="1.46" width="1.00" shape="1775.35,-0.06 1775.65,-0.40 1775.91,-0.50 1776.15,-0.34 1776.35,0.06"/>
    </edge>
    <edge id=":2038034122_0" function="internal">
        <lane id=":2038034122_0_0" index="0" disallow="tram rail_urban rail rail_electric ship" speed="19.44" length="3.74" shape="1745.64,2274.29 1741.88,2271.66"/>
        <lane id=":2038034122_0_1" index="1" disallow="tram rail_urban rail rail_electric ship" speed="19.44" length="3.74" shape="1745.64,2274.29 1745.02,2271.04"/>
        <lane id=":2038034122_0_2" index="2" disallow="tram rail_urban rail rail_electric ship" speed="19.44" length="3.74" shape="1748.78,2273.68 1748.16,2270.42"/>
    </edge>
    <edge id=":21432413_0" function="internal">
        <lane id=":21432413_0_0" index="0" allow="private emergency authority army vip passenger hov taxi bus coach delivery truck trailer motorcycle evehicle custom1 custom2" speed="25.00" length="3.25" shape="1669.86,2393.01 1670.72,2392.57 1671.29,2392.24 1671.84,2391.88 1672.62,2391.31"/>
    </edge>
    <edge id=":21432413_1" function="internal">
        <lane id=":21432413_1_0" index="0" allow="private emergency authority army vip passenger hov taxi bus coach delivery truck trailer motorcycle evehicle custom1 custom2" speed="27.78" length="3.24" shape="1671.89,2395.81 1674.51,2393.90"/>
        <lane id=":21432413_1_1" index="1" allow="private emergency authority army vip passenger hov taxi bus coach delivery truck trailer motorcycle evehicle custom1 custom2" speed="27.78" length="3.24" shape="1673.78,2398.39 1676.39,2396.49"/>
        <lane id=":21432413_1_2" index="2" allow="private emergency authority army vip passenger hov taxi bus coach delivery truck trailer motorcycle evehicle custom1 custom2" speed="27.78" length="3.24" shape="1675.66,2400.98 1678.27,2399.07"/>
    </edge>
    <edge id=":21432419_0" function="internal">
        <lane id=":21432419_0_0" index="0" allow="private emergency authority army vip passenger hov taxi bus coach delivery truck trailer motorcycle evehicle custom1 custom2" speed="20.83" length="0.54" shape="1544.24,2335.67 1544.19,2335.83 1544.17,2335.93 1544.16,2336.04 1544.17,2336.20"/>
    </edge>
    <edge id=":21432419_1" function="internal">
        <lane id=":21432419_1_0" index="0" allow="private emergency authority army vip passenger hov taxi bus coach delivery truck trailer motorcycle evehicle custom1 custom2" speed="19.44" length="2.34" shape="1544.24,2335.67 1543.12,2336.59 1542.24,2336.74"/>
    </edge>
    <edge id=":21432419_3" function="internal">
        <lane id=":21432419_3_0" index="0" speed="19.44" length="2.34" shape="1542.24,2336.74 1541.59,2336.13 1541.17,2334.75"/>
    </edge>
    <edge id=":21432419_2" function="internal">
        <lane id=":21432419_2_0" index="0" allow="private emergency authority army vip passenger hov taxi bus coach delivery truck trailer motorcycle evehicle custom1 custom2" speed="16.66" length="1.62" shape="1540.92,2336.34 1540.94,2335.86 1540.97,2335.53 1541.04,2335.21 1541.17,2334.75"/>
    </edge>
    <edge id=":21432441_0" function="internal">
        <lane id=":21432441_0_0" index="0" disallow="tram rail_urban rail rail_electric ship" speed="13.89" length="6.05" shape="1787.38,2784.99 1787.29,2783.34 1787.01,2782.23 1786.54,2781.16 1785.89,2779.61"/>
        <lane id=":21432441_0_1" index="1" disallow="tram rail_urban rail rail_electric ship" speed="13.89" length="6.05" shape="1790.58,2784.99 1790.44,2783.11 1790.08,2781.86 1789.57,2780.62 1788.98,2778.80"/>
    </edge>
    <edge id=":21432441_2" function="internal">
        <lane id=":21432441_2_0" index="0" disallow="tram rail_urban rail rail_electric ship" speed="13.89" length="6.15" shape="1790.58,2784.99 1790.72,2783.23 1791.16,2782.07 1791.95,2781.02 1793.12,2779.61"/>
    </edge>
    <edge id=":21432442_0" function="internal">
        <lane id=":21432442_0_0" index="0" disallow="tram rail_urban rail rail_electric ship" speed="13.89" length="6.78" shape="1809.83,2815.51 1808.27,2814.26 1807.10,2813.54 1805.84,2812.94 1804.03,2812.05"/>
    </edge>
    <edge id=":21432442_1" function="internal">
        <lane id=":21432442_1_0" index="0" disallow="tram rail_urban rail rail_electric ship" speed="13.89" length="4.13" shape="1809.46,2810.19 1808.24,2810.12 1807.40,2810.01 1806.61,2809.75 1805.51,2809.21"/>
    </edge>
    <edge id=":21533060_0" function="internal">
        <lane id=":21533060_0_0" index="0" disallow="tram rail_urban rail rail_electric ship" speed="19.44" length="0.36" shape="1545.08,2664.82 1544.74,2664.95"/>
    </edge>
    <edge id=":21533060_1" function="internal">
        <lane id=":21533060_1_0" index="0" disallow="tram rail_urban rail rail_electric ship" speed="19.44" length="0.23" shape="1543.51,2662.00 1543.72,2661.91"/>
    </edge>
    <edge id=":21533060_2" function="internal">
        <lane id=":21533060_2_0" index="0" disallow="tram rail_urban rail rail_electric ship" speed="19.44" length="2.34" shape="1543.51,2662.00 1544.92,2662.28 1545.60,2662.86"/>
    </edge>
    <edge id=":21533060_3" function="internal">
        <lane id=":21533060_3_0" index="0" speed="19.44" length="2.34" shape="1545.60,2662.86 1545.54,2663.75 1544.74,2664.95"/>
    </edge>
    <edge id=":2289456192_0" function="internal">
        <lane id=":2289456192_0_0" index="0" allow="delivery bicycle pedestrian" speed="5.56" length="9.43" shape="1706.06,2811.31 1698.16,2816.45"/>
    </edge>
    <edge id=":2289456192_1" function="internal">
        <lane id=":2289456192_1_0" index="0" allow="delivery bicycle pedestrian" speed="5.56" length="10.28" shape="1706.06,2811.31 1703.50,2812.51 1701.19,2812.59 1699.13,2811.54 1697.31,2809.38"/>
    </edge>
    <edge id=":2289456192_2" function="internal">
        <lane id=":2289456192_2_0" index="0" allow="delivery bicycle pedestrian" speed="5.56" length="4.67" shape="1706.06,2811.31 1704.62,2811.30 1703.85,2810.85 1703.75,2809.96 1704.31,2808.64"/>
    </edge>
    <edge id=":2289456192_3" function="internal">
        <lane id=":2289456192_3_0" index="0" allow="delivery bicycle pedestrian" speed="5.56" length="5.03" shape="1700.03,2807.69 1700.92,2808.75 1701.93,2809.26 1703.06,2809.22 1704.31,2808.64"/>
    </edge>
    <edge id=":2289456192_4" function="internal">