<?xml version="1.0" encoding="UTF-8"?>

<!-- generated on Thu Jun  7 17:05:38 2018 by Eclipse SUMO duarouter Version bd2c4bd
<configuration xmlns:xsi="http://www.w3.org/2001/XMLSchema-instance" xsi:noNamespaceSchemaLocation="http://sumo.dlr.de/xsd/duarouterConfiguration.xsd">

    <input>
        <net-file value="osm.net.xml"/>
        <route-files value="osm.passenger_mwb.trips.xml"/>
    </input>

    <output>
        <output-file value="osm.passenger_mwb.rou.xml"/>
        <alternatives-output value="osm.passenger_mwb.rou.alt.xml"/>
    </output>

    <processing>
        <ignore-errors value="true"/>
    </processing>

    <time>
        <begin value="100.0"/>
        <end value="1800.0"/>
    </time>

    <report>
        <no-warnings value="true"/>
        <no-step-log value="true"/>
    </report>

</configuration>
-->

<routes xmlns:xsi="http://www.w3.org/2001/XMLSchema-instance" xsi:noNamespaceSchemaLocation="http://sumo.dlr.de/xsd/routes_file.xsd">
    <vType id="veh_mwb_passenger" speedFactor="normc(1.00,0.10,0.20,2.00)" vClass="passenger" sigma="0.8"/>
    <vehicle id="veh_mwb0" type="veh_mwb_passenger" depart="100.00" departLane="free" departPos="last" departSpeed="max">
        <route edges="290296351 240042212 151495040 264308374 399250313 264308373"/>
    </vehicle>
    <vehicle id="veh_mwb1" type="veh_mwb_passenger" depart="101.60" departLane="free" departPos="last" departSpeed="max">
        <route edges="290296351 240042212 151495040 264308374 399250313 264308373"/>
    </vehicle>
    <vehicle id="veh_mwb2" type="veh_mwb_passenger" depart="103.20" departLane="free" departPos="last" departSpeed="max">
        <route edges="264306385 264308375 264308383 4054057 264308376"/>
    </vehicle>
    <vehicle id="veh_mwb3" type="veh_mwb_passenger" depart="104.80" departLane="free" departPos="last" departSpeed="max">
        <route edges="264306385 264308375 264308383 4054057 264308376"/>
    </vehicle>
    <vehicle id="veh_mwb4" type="veh_mwb_passenger" depart="106.40" departLane="free" departPos="last" departSpeed="max">
        <route edges="290296351 240042212 151495040 264308374 399250313 264308373"/>
    </vehicle>
    <vehicle id="veh_mwb5" type="veh_mwb_passenger" depart="108.00" departLane="free" departPos="last" departSpeed="max">
        <route edges="290296351 240042212 151495040 264308374 399250313 264308373"/>
    </vehicle>
    <vehicle id="veh_mwb6" type="veh_mwb_passenger" depart="109.60" departLane="free" departPos="last" departSpeed="max">
        <route edges="264306385 264308375 264308383 4054057 264308376"/>
    </vehicle>
    <vehicle id="veh_mwb7" type="veh_mwb_passenger" depart="111.20" departLane="free" departPos="last" departSpeed="max">
        <route edges="290296351 240042212 151495040 264308374 399250313 264308373"/>
    </vehicle>
    <vehicle id="veh_mwb8" type="veh_mwb_passenger" depart="112.80" departLane="free" departPos="last" departSpeed="max">
        <route edges="290296351 240042212 151495040 264308374 399250313 264308373"/>
    </vehicle>
    <vehicle id="veh_mwb9" type="veh_mwb_passenger" depart="114.40" departLane="free" departPos="last" departSpeed="max">
        <route edges="264306385 264308375 264308383 4054057 264308376"/>
    </vehicle>
    <vehicle id="veh_mwb10" type="veh_mwb_passenger" depart="116.00" departLane="free" departPos="last" departSpeed="max">
        <route edges="264306385 264308375 264308383 4054057 264308376"/>
    </vehicle>
    <vehicle id="veh_mwb11" type="veh_mwb_passenger" depart="117.60" departLane="free" departPos="last" departSpeed="max">
        <route edges="264306385 264308375 264308383 4054057 264308376"/>
    </vehicle>
    <vehicle id="veh_mwb12" type="veh_mwb_passenger" depart="119.20" departLane="free" departPos="last" departSpeed="max">
        <route edges="290296351 240042212 151495040 264308374 399250313 264308373"/>
    </vehicle>
    <vehicle id="veh_mwb13" type="veh_mwb_passenger" depart="120.80" departLane="free" departPos="last" departSpeed="max">
        <route edges="290296351 240042212 151495040 264308374 399250313 264308373"/>
    </vehicle>
    <vehicle id="veh_mwb14" type="veh_mwb_passenger" depart="122.40" departLane="free" departPos="last" departSpeed="max">
        <route edges="290296351 240042212 151495040 264308374 399250313 264308373"/>
    </vehicle>
    <vehicle id="veh_mwb15" type="veh_mwb_passenger" depart="124.00" departLane="free" departPos="last" departSpeed="max">
        <route edges="290296351 240042212 151495040 264308374 399250313 264308373"/>
    </vehicle>
    <vehicle id="veh_mwb16" type="veh_mwb_passenger" depart="125.60" departLane="free" departPos="last" departSpeed="max">
        <route edges="264306385 264308375 264308383 4054057 264308376"/>
    </vehicle>
    <vehicle id="veh_mwb17" type="veh_mwb_passenger" depart="127.20" departLane="free" departPos="last" departSpeed="max">
        <route edges="290296351 240042212 151495040 264308374 399250313 264308373"/>
    </vehicle>
    <vehicle id="veh_mwb18" type="veh_mwb_passenger" depart="128.80" departLane="free" departPos="last" departSpeed="max">
        <route edges="264306385 264308375 264308383 4054057 264308376"/>
    </vehicle>
    <vehicle id="veh_mwb19" type="veh_mwb_passenger" depart="130.40" departLane="free" departPos="last" departSpeed="max">
        <route edges="264306385 264308375 264308383 4054057 264308376"/>
    </vehicle>
    <vehicle id="veh_mwb20" type="veh_mwb_passenger" depart="132.00" departLane="free" departPos="last" departSpeed="max">
        <route edges="264306385 264308375 264308383 4054057 264308376"/>
    </vehicle>
    <vehicle id="veh_mwb21" type="veh_mwb_passenger" depart="133.60" departLane="free" departPos="last" departSpeed="max">
        <route edges="290296351 240042212 151495040 264308374 399250313 264308373"/>
    </vehicle>
    <vehicle id="veh_mwb23" type="veh_mwb_passenger" depart="136.80" departLane="free" departPos="last" departSpeed="max">
        <route edges="264306385 264308375 264308383 4054057 264308376"/>
    </vehicle>
    <vehicle id="veh_mwb24" type="veh_mwb_passenger" depart="138.40" departLane="free" departPos="last" departSpeed="max">
        <route edges="290296351 240042212 151495040 264308374 399250313 264308373"/>
    </vehicle>
    <vehicle id="veh_mwb25" type="veh_mwb_passenger" depart="140.00" departLane="free" departPos="last" departSpeed="max">
        <route edges="240042212 151495040 264308374 399250313 264308373"/>
    </vehicle>
    <vehicle id="veh_mwb26" type="veh_mwb_passenger" depart="141.60" departLane="free" departPos="last" departSpeed="max">
        <route edges="264306385 264308375 264308383 4054057 264308376"/>
    </vehicle>
    <vehicle id="veh_mwb27" type="veh_mwb_passenger" depart="143.20" departLane="free" departPos="last" departSpeed="max">
        <route edges="264306385 264308375 264308383 4054057 264308376"/>
    </vehicle>
    <vehicle id="veh_mwb28" type="veh_mwb_passenger" depart="144.80" departLane="free" departPos="last" departSpeed="max">
        <route edges="290296351 240042212 151495040 264308374 399250313 264308373"/>
    </vehicle>
    <vehicle id="veh_mwb29" type="veh_mwb_passenger" depart="146.40" departLane="free" departPos="last" departSpeed="max">
        <route edges="264306385 264308375 264308383 4054057 264308376"/>
    </vehicle>
    <vehicle id="veh_mwb30" type="veh_mwb_passenger" depart="148.00" departLane="free" departPos="last" departSpeed="max">
        <route edges="264306385 264308375 264308383 4054057 264308376"/>
    </vehicle>
    <vehicle id="veh_mwb31" type="veh_mwb_passenger" depart="149.60" departLane="free" departPos="last" departSpeed="max">
        <route edges="264306385 264308375 264308383 4054057 264308376"/>
    </vehicle>
    <vehicle id="veh_mwb32" type="veh_mwb_passenger" depart="151.20" departLane="free" departPos="last" departSpeed="max">
        <route edges="264306385 264308375 264308383 4054057 264308376"/>
    </vehicle>
    <vehicle id="veh_mwb33" type="veh_mwb_passenger" depart="152.80" departLane="free" departPos="last" departSpeed="max">
        <route edges="264306385 264308375 264308383 4054057 264308376"/>
    </vehicle>
    <vehicle id="veh_mwb34" type="veh_mwb_passenger" depart="154.40" departLane="free" departPos="last" departSpeed="max">
        <route edges="264306385 264308375 264308383 4054057 264308376"/>
    </vehicle>
    <vehicle id="veh_mwb35" type="veh_mwb_passenger" depart="156.00" departLane="free" departPos="last" departSpeed="max">
        <route edges="290296351 240042212 151495040 264308374 399250313 264308373"/>
    </vehicle>
    <vehicle id="veh_mwb36" type="veh_mwb_passenger" depart="157.60" departLane="free" departPos="last" departSpeed="max">
        <route edges="264306385 264308375 264308383 4054057 264308376"/>
    </vehicle>
    <vehicle id="veh_mwb37" type="veh_mwb_passenger" depart="159.20" departLane="free" departPos="last" departSpeed="max">
        <route edges="264306385 264308375 264308383 4054057 264308376"/>
    </vehicle>
    <vehicle id="veh_mwb38" type="veh_mwb_passenger" depart="160.80" departLane="free" departPos="last" departSpeed="max">
        <route edges="290296351 240042212 151495040 264308374 399250313 264308373"/>
    </vehicle>
    <vehicle id="veh_mwb39" type="veh_mwb_passenger" depart="162.40" departLane="free" departPos="last" departSpeed="max">
        <route edges="290296351 240042212 151495040 264308374 399250313 264308373"/>
    </vehicle>
    <vehicle id="veh_mwb40" type="veh_mwb_passenger" depart="164.00" departLane="free" departPos="last" departSpeed="max">
        <route edges="290296351 240042212 151495040 264308374 399250313 264308373"/>
    </vehicle>
    <vehicle id="veh_mwb41" type="veh_mwb_passenger" depart="165.60" departLane="free" departPos="last" departSpeed="max">
        <route edges="264306385 264308375 264308383 4054057 264308376"/>
    </vehicle>
    <vehicle id="veh_mwb42" type="veh_mwb_passenger" depart="167.20" departLane="free" departPos="last" departSpeed="max">
        <route edges="264306385 264308375 264308383 4054057 264308376"/>
    </vehicle>
    <vehicle id="veh_mwb43" type="veh_mwb_passenger" depart="168.80" departLane="free" departPos="last" departSpeed="max">
        <route edges="290296351 240042212 151495040 264308374 399250313 264308373"/>
    </vehicle>
    <vehicle id="veh_mwb45" type="veh_mwb_passenger" depart="172.00" departLane="free" departPos="last" departSpeed="max">
        <route edges="290296351 240042212 151495040 264308374 399250313 264308373"/>
    </vehicle>
    <vehicle id="veh_mwb46" type="veh_mwb_passenger" depart="173.60" departLane="free" departPos="last" departSpeed="max">
        <route edges="264306385 264308375 264308383 4054057 264308376"/>
    </vehicle>
    <vehicle id="veh_mwb47" type="veh_mwb_passenger" depart="175.20" departLane="free" departPos="last" departSpeed="max">
        <route edges="264306385 264308375 264308383 4054057 264308376"/>
    </vehicle>
    <vehicle id="veh_mwb48" type="veh_mwb_passenger" depart="176.80" departLane="free" departPos="last" departSpeed="max">
        <route edges="264306385 264308375 264308383 4054057 264308376"/>
    </vehicle>
    <vehicle id="veh_mwb49" type="veh_mwb_passenger" depart="178.40" departLane="free" departPos="last" departSpeed="max">
        <route edges="264306385 264308375 264308383 4054057 264308376"/>
    </vehicle>
    <vehicle id="veh_mwb50" type="veh_mwb_passenger" depart="180.00" departLane="free" departPos="last" departSpeed="max">
        <route edges="290296351 240042212 151495040 264308374 399250313 264308373"/>
    </vehicle>
    <vehicle id="veh_mwb51" type="veh_mwb_passenger" depart="181.60" departLane="free" departPos="last" departSpeed="max">
        <route edges="264306385 264308375 264308383 4054057 264308376"/>
    </vehicle>
    <vehicle id="veh_mwb52" type="veh_mwb_passenger" depart="183.20" departLane="free" departPos="last" departSpeed="max">
        <route edges="264306385 264308375 264308383 4054057 264308376"/>
    </vehicle>
    <vehicle id="veh_mwb53" type="veh_mwb_passenger" depart="184.80" departLane="free" departPos="last" departSpeed="max">
        <route edges="290296351 240042212 151495040 264308374 399250313 264308373"/>
    </vehicle>
    <vehicle id="veh_mwb54" type="veh_mwb_passenger" depart="186.40" departLane="free" departPos="last" departSpeed="max">
        <route edges="264306385 264308375 264308383 4054057 264308376"/>
    </vehicle>
    <vehicle id="veh_mwb55" type="veh_mwb_passenger" depart="188.00" departLane="free" departPos="last" departSpeed="max">
        <route edges="264306385 264308375 264308383 4054057 264308376"/>
    </vehicle>
    <vehicle id="veh_mwb56" type="veh_mwb_passenger" depart="189.60" departLane="free" departPos="last" departSpeed="max">
        <route edges="290296351 240042212 151495040 264308374 399250313 264308373"/>
    </vehicle>
    <vehicle id="veh_mwb57" type="veh_mwb_passenger" depart="191.20" departLane="free" departPos="last" departSpeed="max">
        <route edges="290296351 240042212 151495040 264308374 399250313 264308373"/>
    </vehicle>
    <vehicle id="veh_mwb58" type="veh_mwb_passenger" depart="192.80" departLane="free" departPos="last" departSpeed="max">
        <route edges="264306385 264308375 264308383 4054057 264308376"/>
    </vehicle>
    <vehicle id="veh_mwb59" type="veh_mwb_passenger" depart="194.40" departLane="free" departPos="last" departSpeed="max">
        <route edges="264306385 264308375 264308383 4054057 264308376"/>
    </vehicle>
    <vehicle id="veh_mwb60" type="veh_mwb_passenger" depart="196.00" departLane="free" departPos="last" departSpeed="max">
        <route edges="290296351 240042212 151495040 264308374 399250313 264308373"/>
    </vehicle>
    <vehicle id="veh_mwb61" type="veh_mwb_passenger" depart="197.60" departLane="free" departPos="last" departSpeed="max">
        <route edges="290296351 240042212 151495040 264308374 399250313 264308373"/>
    </vehicle>
    <vehicle id="veh_mwb62" type="veh_mwb_passenger" depart="199.20" departLane="free" departPos="last" departSpeed="max">
        <route edges="264306385 264308375 264308383 4054057 264308376"/>
    </vehicle>
    <vehicle id="veh_mwb63" type="veh_mwb_passenger" depart="200.80" departLane="free" departPos="last" departSpeed="max">
        <route edges="290296351 240042212 151495040 264308374 399250313 264308373"/>
    </vehicle>
    <vehicle id="veh_mwb64" type="veh_mwb_passenger" depart="202.40" departLane="free" departPos="last" departSpeed="max">
        <route edges="264306385 264308375 264308383 4054057 264308376"/>
    </vehicle>
    <vehicle id="veh_mwb65" type="veh_mwb_passenger" depart="204.00" departLane="free" departPos="last" departSpeed="max">
        <route edges="290296351 240042212 151495040 264308374 399250313 264308373"/>
    </vehicle>
    <vehicle id="veh_mwb66" type="veh_mwb_passenger" depart="205.60" departLane="free" departPos="last" departSpeed="max">
        <route edges="264306385 264308375 264308383 4054057 264308376"/>
    </vehicle>
    <vehicle id="veh_mwb67" type="veh_mwb_passenger" depart="207.20" departLane="free" departPos="last" departSpeed="max">
        <route edges="264306385 264308375 264308383 4054057 264308376"/>
    </vehicle>
    <vehicle id="veh_mwb68" type="veh_mwb_passenger" depart="208.80" departLane="free" departPos="last" departSpeed="max">
        <route edges="290296351 240042212 151495040 264308374 399250313 264308373"/>
    </vehicle>
    <vehicle id="veh_mwb69" type="veh_mwb_passenger" depart="210.40" departLane="free" departPos="last" departSpeed="max">
        <route edges="264306385 264308375 264308383 4054057 264308376"/>
    </vehicle>
    <vehicle id="veh_mwb70" type="veh_mwb_passenger" depart="212.00" departLane="free" departPos="last" departSpeed="max">
        <route edges="264306385 264308375 264308383 4054057 264308376"/>
    </vehicle>
    <vehicle id="veh_mwb71" type="veh_mwb_passenger" depart="213.60" departLane="free" departPos="last" departSpeed="max">
        <route edges="264306385 264308375 264308383 4054057 264308376"/>
    </vehicle>
    <vehicle id="veh_mwb72" type="veh_mwb_passenger" depart="215.20" departLane="free" departPos="last" departSpeed="max">
        <route edges="264306385 264308375 264308383 4054057 264308376"/>
    </vehicle>
    <vehicle id="veh_mwb73" type="veh_mwb_passenger" depart="216.80" departLane="free" departPos="last" departSpeed="max">
        <route edges="290296351 240042212 151495040 264308374 399250313 264308373"/>
    </vehicle>
    <vehicle id="veh_mwb74" type="veh_mwb_passenger" depart="218.40" departLane="free" departPos="last" departSpeed="max">
        <route edges="290296351 240042212 151495040 264308374 399250313 264308373"/>
    </vehicle>
    <vehicle id="veh_mwb75" type="veh_mwb_passenger" depart="220.00" departLane="free" departPos="last" departSpeed="max">
        <route edges="264306385 264308375 264308383 4054057 264308376"/>
    </vehicle>
    <vehicle id="veh_mwb76" type="veh_mwb_passenger" depart="221.60" departLane="free" departPos="last" departSpeed="max">
        <route edges="290296351 240042212 151495040 264308374 399250313 264308373"/>
    </vehicle>
    <vehicle id="veh_mwb77" type="veh_mwb_passenger" depart="223.20" departLane="free" departPos="last" departSpeed="max">
        <route edges="264306385 264308375 264308383 4054057 264308376"/>
    </vehicle>
    <vehicle id="veh_mwb78" type="veh_mwb_passenger" depart="224.80" departLane="free" departPos="last" departSpeed="max">
        <route edges="290296351 240042212 151495040 264308374 399250313 264308373"/>
    </vehicle>
    <vehicle id="veh_mwb79" type="veh_mwb_passenger" depart="226.40" departLane="free" departPos="last" departSpeed="max">
        <route edges="290296351 240042212 151495040 264308374 399250313 264308373"/>
    </vehicle>
    <vehicle id="veh_mwb80" type="veh_mwb_passenger" depart="228.00" departLane="free" departPos="last" departSpeed="max">
        <route edges="290296351 240042212 151495040 264308374 399250313 264308373"/>
    </vehicle>
    <vehicle id="veh_mwb81" type="veh_mwb_passenger" depart="229.60" departLane="free" departPos="last" departSpeed="max">
        <route edges="290296351 240042212 151495040 264308374 399250313 264308373"/>
    </vehicle>
    <vehicle id="veh_mwb82" type="veh_mwb_passenger" depart="231.20" departLane="free" departPos="last" departSpeed="max">
        <route edges="290296351 240042212 151495040 264308374 399250313 264308373"/>
    </vehicle>
    <vehicle id="veh_mwb83" type="veh_mwb_passenger" depart="232.80" departLane="free" departPos="last" departSpeed="max">
        <route edges="290296351 240042212 151495040 264308374 399250313 264308373"/>
    </vehicle>
    <vehicle id="veh_mwb84" type="veh_mwb_passenger" depart="234.40" departLane="free" departPos="last" departSpeed="max">
        <route edges="264306385 264308375 264308383 4054057 264308376"/>
    </vehicle>
    <vehicle id="veh_mwb85" type="veh_mwb_passenger" depart="236.00" departLane="free" departPos="last" departSpeed="max">
        <route edges="264306385 264308375 264308383 4054057 264308376"/>
    </vehicle>
    <vehicle id="veh_mwb86" type="veh_mwb_passenger" depart="237.60" departLane="free" departPos="last" departSpeed="max">
        <route edges="264306385 264308375 264308383 4054057 264308376"/>
    </vehicle>
    <vehicle id="veh_mwb87" type="veh_mwb_passenger" depart="239.20" departLane="free" departPos="last" departSpeed="max">
        <route edges="290296351 240042212 151495040 264308374 399250313 264308373"/>
    </vehicle>
    <vehicle id="veh_mwb88" type="veh_mwb_passenger" depart="240.80" departLane="free" departPos="last" departSpeed="max">
        <route edges="264306385 264308375 264308383 4054057 264308376"/>
    </vehicle>
    <vehicle id="veh_mwb89" type="veh_mwb_passenger" depart="242.40" departLane="free" departPos="last" departSpeed="max">
        <route edges="290296351 240042212 151495040 264308374 399250313 264308373"/>
    </vehicle>
    <vehicle id="veh_mwb90" type="veh_mwb_passenger" depart="244.00" departLane="free" departPos="last" departSpeed="max">
        <route edges="264306385 264308375 264308383 4054057 264308376"/>
    </vehicle>
    <vehicle id="veh_mwb91" type="veh_mwb_passenger" depart="245.60" departLane="free" departPos="last" departSpeed="max">
        <route edges="151495040 264308374 399250313 264308373"/>
    </vehicle>
    <vehicle id="veh_mwb92" type="veh_mwb_passenger" depart="247.20" departLane="free" departPos="last" departSpeed="max">
        <route edges="264306385 264308375 264308383 4054057 264308376"/>
    </vehicle>
    <vehicle id="veh_mwb93" type="veh_mwb_passenger" depart="248.80" departLane="free" departPos="last" departSpeed="max">
        <route edges="290296351 240042212 151495040 264308374 399250313 264308373"/>
    </vehicle>
    <vehicle id="veh_mwb94" type="veh_mwb_passenger" depart="250.40" departLane="free" departPos="last" departSpeed="max">
        <route edges="264306385 264308375 264308383 4054057 264308376"/>
    </vehicle>
    <vehicle id="veh_mwb95" type="veh_mwb_passenger" depart="252.00" departLane="free" departPos="last" departSpeed="max">
        <route edges="290296351 240042212 151495040 264308374 399250313 264308373"/>
    </vehicle>
    <vehicle id="veh_mwb96" type="veh_mwb_passenger" depart="253.60" departLane="free" departPos="last" departSpeed="max">
        <route edges="264306385 264308375 264308383 4054057 264308376"/>
    </vehicle>
    <vehicle id="veh_mwb97" type="veh_mwb_passenger" depart="255.20" departLane="free" departPos="last" departSpeed="max">
        <route edges="290296351 240042212 151495040 264308374 399250313 264308373"/>
    </vehicle>
    <vehicle id="veh_mwb98" type="veh_mwb_passenger" depart="256.80" departLane="free" departPos="last" departSpeed="max">
        <route edges="290296351 240042212 151495040 264308374 399250313 264308373"/>
    </vehicle>
    <vehicle id="veh_mwb99" type="veh_mwb_passenger" depart="258.40" departLane="free" departPos="last" departSpeed="max">
        <route edges="290296351 240042212 151495040 264308374 399250313 264308373"/>
    </vehicle>
    <vehicle id="veh_mwb100" type="veh_mwb_passenger" depart="260.00" departLane="free" departPos="last" departSpeed="max">
        <route edges="264306385 264308375 264308383 4054057 264308376"/>
    </vehicle>
    <vehicle id="veh_mwb101" type="veh_mwb_passenger" depart="261.60" departLane="free" departPos="last" departSpeed="max">
        <route edges="264306385 264308375 264308383 4054057 264308376"/>
    </vehicle>
    <vehicle id="veh_mwb102" type="veh_mwb_passenger" depart="263.20" departLane="free" departPos="last" departSpeed="max">
        <route edges="290296351 240042212 151495040 264308374 399250313 264308373"/>
    </vehicle>
    <vehicle id="veh_mwb103" type="veh_mwb_passenger" depart="264.80" departLane="free" departPos="last" departSpeed="max">
        <route edges="264306385 264308375 264308383 4054057 264308376"/>
    </vehicle>
    <vehicle id="veh_mwb104" type="veh_mwb_passenger" depart="266.40" departLane="free" departPos="last" departSpeed="max">
        <route edges="290296351 240042212 151495040 264308374 399250313 264308373"/>
    </vehicle>
    <vehicle id="veh_mwb105" type="veh_mwb_passenger" depart="268.00" departLane="free" departPos="last" departSpeed="max">
        <route edges="264306385 264308375 264308383 4054057 264308376"/>
    </vehicle>
    <vehicle id="veh_mwb106" type="veh_mwb_passenger" depart="269.60" departLane="free" departPos="last" departSpeed="max">
        <route edges="264306385 264308375 264308383 4054057 264308376"/>
    </vehicle>
    <vehicle id="veh_mwb107" type="veh_mwb_passenger" depart="271.20" departLane="free" departPos="last" departSpeed="max">
        <route edges="264306385 264308375 264308383 4054057 264308376"/>
    </vehicle>
    <vehicle id="veh_mwb108" type="veh_mwb_passenger" depart="272.80" departLane="free" departPos="last" departSpeed="max">
        <route edges="290296351 240042212 151495040 264308374 399250313 264308373"/>
    </vehicle>
    <vehicle id="veh_mwb109" type="veh_mwb_passenger" depart="274.40" departLane="free" departPos="last" departSpeed="max">
        <route edges="290296351 240042212 151495040 264308374 399250313 264308373"/>
    </vehicle>
    <vehicle id="veh_mwb110" type="veh_mwb_passenger" depart="276.00" departLane="free" departPos="last" departSpeed="max">
        <route edges="264306385 264308375 264308383 4054057 264308376"/>
    </vehicle>
    <vehicle id="veh_mwb111" type="veh_mwb_passenger" depart="277.60" departLane="free" departPos="last" departSpeed="max">
        <route edges="290296351 240042212 151495040 264308374 399250313 264308373"/>
    </vehicle>
    <vehicle id="veh_mwb112" type="veh_mwb_passenger" depart="279.20" departLane="free" departPos="last" departSpeed="max">
        <route edges="264306385 264308375 264308383 4054057 264308376"/>
    </vehicle>
    <vehicle id="veh_mwb113" type="veh_mwb_passenger" depart="280.80" departLane="free" departPos="last" departSpeed="max">
        <route edges="264306385 264308375 264308383 4054057 264308376"/>
    </vehicle>
    <vehicle id="veh_mwb114" type="veh_mwb_passenger" depart="282.40" departLane="free" departPos="last" departSpeed="max">
        <route edges="264306385 264308375 264308383 4054057 264308376"/>
    </vehicle>
    <vehicle id="veh_mwb115" type="veh_mwb_passenger" depart="284.00" departLane="free" departPos="last" departSpeed="max">
        <route edges="264306385 264308375 264308383 4054057 264308376"/>
    </vehicle>
    <vehicle id="veh_mwb116" type="veh_mwb_passenger" depart="285.60" departLane="free" departPos="last" departSpeed="max">
        <route edges="264306385 264308375 264308383 4054057 264308376"/>
    </vehicle>
    <vehicle id="veh_mwb117" type="veh_mwb_passenger" depart="287.20" departLane="free" departPos="last" departSpeed="max">
        <route edges="290296351 240042212 151495040 264308374 399250313 264308373"/>
    </vehicle>
    <vehicle id="veh_mwb118" type="veh_mwb_passenger" depart="288.80" departLane="free" departPos="last" departSpeed="max">
        <route edges="264306385 264308375 264308383 4054057 264308376"/>
    </vehicle>
    <vehicle id="veh_mwb119" type="veh_mwb_passenger" depart="290.40" departLane="free" departPos="last" departSpeed="max">
        <route edges="264306385 264308375 264308383 4054057 264308376"/>
    </vehicle>
    <vehicle id="veh_mwb120" type="veh_mwb_passenger" depart="292.00" departLane="free" departPos="last" departSpeed="max">
        <route edges="290296351 240042212 151495040 264308374 399250313 264308373"/>
    </vehicle>
    <vehicle id="veh_mwb121" type="veh_mwb_passenger" depart="293.60" departLane="free" departPos="last" departSpeed="max">
        <route edges="264306385 264308375 264308383 4054057 264308376"/>
    </vehicle>
    <vehicle id="veh_mwb123" type="veh_mwb_passenger" depart="296.80" departLane="free" departPos="last" departSpeed="max">
        <route edges="290296351 240042212 151495040 264308374 399250313 264308373"/>
    </vehicle>
    <vehicle id="veh_mwb124" type="veh_mwb_passenger" depart="298.40" departLane="free" departPos="last" departSpeed="max">
        <route edges="264306385 264308375 264308383 4054057 264308376"/>
    </vehicle>
    <vehicle id="veh_mwb125" type="veh_mwb_passenger" depart="300.00" departLane="free" departPos="last" departSpeed="max">
        <route edges="290296351 240042212 151495040 264308374 399250313 264308373"/>
    </vehicle>
    <vehicle id="veh_mwb126" type="veh_mwb_passenger" depart="301.60" departLane="free" departPos="last" departSpeed="max">
        <route edges="264306385 264308375 264308383 4054057 264308376"/>
    </vehicle>
    <vehicle id="veh_mwb127" type="veh_mwb_passenger" depart="303.20" departLane="free" departPos="last" departSpeed="max">
        <route edges="290296351 240042212 151495040 264308374 399250313 264308373"/>
    </vehicle>
    <vehicle id="veh_mwb128" type="veh_mwb_passenger" depart="304.80" departLane="free" departPos="last" departSpeed="max">
        <route edges="264306385 264308375 264308383 4054057 264308376"/>
    </vehicle>
    <vehicle id="veh_mwb129" type="veh_mwb_passenger" depart="306.40" departLane="free" departPos="last" departSpeed="max">
        <route edges="290296351 240042212 151495040 264308374 399250313 264308373"/>
    </vehicle>
    <vehicle id="veh_mwb130" type="veh_mwb_passenger" depart="308.00" departLane="free" departPos="last" departSpeed="max">
        <route edges="290296351 240042212 151495040 264308374 399250313 264308373"/>
    </vehicle>
    <vehicle id="veh_mwb131" type="veh_mwb_passenger" depart="309.60" departLane="free" departPos="last" departSpeed="max">
        <route edges="264306385 264308375 264308383 4054057 264308376"/>
    </vehicle>
    <vehicle id="veh_mwb132" type="veh_mwb_passenger" depart="311.20" departLane="free" departPos="last" departSpeed="max">
        <route edges="264306385 264308375 264308383 4054057 264308376"/>
    </vehicle>
    <vehicle id="veh_mwb133" type="veh_mwb_passenger" depart="312.80" departLane="free" departPos="last" departSpeed="max">
        <route edges="290296351 240042212 151495040 264308374 399250313 264308373"/>
    </vehicle>
    <vehicle id="veh_mwb134" type="veh_mwb_passenger" depart="314.40" departLane="free" departPos="last" departSpeed="max">
        <route edges="290296351 240042212 151495040 264308374 399250313 264308373"/>
    </vehicle>
    <vehicle id="veh_mwb135" type="veh_mwb_passenger" depart="316.00" departLane="free" departPos="last" departSpeed="max">
        <route edges="264306385 264308375 264308383 4054057 264308376"/>
    </vehicle>
    <vehicle id="veh_mwb136" type="veh_mwb_passenger" depart="317.60" departLane="free" departPos="last" departSpeed="max">