<?xml version="1.0" encoding="UTF-8"?>

<!-- generated on Mon Feb  1 12:42:16 2021 by Eclipse SUMO netconvert Version 1.7.0
<configuration xmlns:xsi="http://www.w3.org/2001/XMLSchema-instance" xsi:noNamespaceSchemaLocation="http://sumo.dlr.de/xsd/netconvertConfiguration.xsd">

    <input>
        <type-files value="/usr/local/share/sumo/data/typemap/osmNetconvert.typ.xml"/>
        <osm-files value="osm_bbox.osm.xml"/>
    </input>

    <output>
        <output-file value="osm.net.xml"/>
        <output.street-names value="true"/>
        <output.original-names value="true"/>
    </output>

    <projection>
        <proj.utm value="true"/>
    </projection>

    <processing>
        <geometry.remove value="true"/>
        <roundabouts.guess value="true"/>
    </processing>

    <tls_building>
        <tls.discard-simple value="true"/>
        <tls.join value="true"/>
        <tls.guess-signals value="true"/>
        <tls.default-type value="actuated"/>
    </tls_building>

    <ramp_guessing>
        <ramps.guess value="true"/>
    </ramp_guessing>

    <junctions>
        <junctions.join value="true"/>
        <junctions.corner-detail value="5"/>
    </junctions>

    <report>
        <verbose value="true"/>
        <aggregate-warnings value="5"/>
    </report>

</configuration>
-->

<net version="1.6" junctionCornerDetail="5" limitTurnSpeed="5.50" xmlns:xsi="http://www.w3.org/2001/XMLSchema-instance" xsi:noNamespaceSchemaLocation="http://sumo.dlr.de/xsd/net_file.xsd">

    <location netOffset="-390479.24,-5819073.16" convBoundary="0.00,0.00,1164.39,986.80" origBoundary="13.386057,52.510812,13.403342,52.519664" projParameter="+proj=utm +zone=33 +ellps=WGS84 +datum=WGS84 +units=m +no_defs"/>

    <type id="highway.bridleway" priority="1" numLanes="1" speed="2.78" allow="pedestrian" oneway="1" width="2.00"/>
    <type id="highway.bus_guideway" priority="1" numLanes="1" speed="27.78" allow="bus" oneway="1"/>
    <type id="highway.cycleway" priority="1" numLanes="1" speed="8.33" allow="bicycle" oneway="0" width="1.00"/>
    <type id="highway.footway" priority="1" numLanes="1" speed="2.78" allow="pedestrian" oneway="1" width="2.00"/>
    <type id="highway.ford" priority="1" numLanes="1" speed="2.78" allow="army" oneway="0"/>
    <type id="highway.living_street" priority="2" numLanes="1" speed="2.78" disallow="tram rail_urban rail rail_electric rail_fast ship" oneway="0"/>
    <type id="highway.motorway" priority="14" numLanes="2" speed="39.44" allow="private emergency authority army vip passenger hov taxi bus coach delivery truck trailer motorcycle evehicle custom1 custom2" oneway="1"/>
    <type id="highway.motorway_link" priority="9" numLanes="1" speed="22.22" allow="private emergency authority army vip passenger hov taxi bus coach delivery truck trailer motorcycle evehicle custom1 custom2" oneway="1"/>
    <type id="highway.path" priority="1" numLanes="1" speed="2.78" allow="pedestrian bicycle" oneway="1" width="2.00"/>
    <type id="highway.pedestrian" priority="1" numLanes="1" speed="2.78" allow="pedestrian" oneway="1" width="2.00"/>
    <type id="highway.primary" priority="12" numLanes="2" speed="27.78" disallow="tram rail_urban rail rail_electric rail_fast ship" oneway="0"/>
    <type id="highway.primary_link" priority="7" numLanes="1" speed="22.22" disallow="tram rail_urban rail rail_electric rail_fast ship" oneway="0"/>
    <type id="highway.raceway" priority="15" numLanes="2" speed="83.33" allow="vip" oneway="0"/>
    <type id="highway.residential" priority="3" numLanes="1" speed="13.89" disallow="tram rail_urban rail rail_electric rail_fast ship" oneway="0"/>
    <type id="highway.secondary" priority="11" numLanes="1" speed="27.78" disallow="tram rail_urban rail rail_electric rail_fast ship" oneway="0"/>
    <type id="highway.secondary_link" priority="6" numLanes="1" speed="22.22" disallow="tram rail_urban rail rail_electric rail_fast ship" oneway="0"/>
    <type id="highway.service" priority="1" numLanes="1" speed="5.56" allow="pedestrian delivery bicycle" oneway="0"/>
    <type id="highway.stairs" priority="1" numLanes="1" speed="1.39" allow="pedestrian" oneway="1" width="2.00"/>
    <type id="highway.step" priority="1" numLanes="1" speed="1.39" allow="pedestrian" oneway="1" width="2.00"/>
    <type id="highway.steps" priority="1" numLanes="1" speed="1.39" allow="pedestrian" oneway="1" width="2.00"/>
    <type id="highway.tertiary" priority="10" numLanes="1" speed="22.22" disallow="tram rail_urban rail rail_electric rail_fast ship" oneway="0"/>
    <type id="highway.tertiary_link" priority="5" numLanes="1" speed="22.22" disallow="tram rail_urban rail rail_electric rail_fast ship" oneway="0"/>
    <type id="highway.track" priority="1" numLanes="1" speed="5.56" allow="pedestrian motorcycle moped bicycle" oneway="0"/>
    <type id="highway.trunk" priority="13" numLanes="2" speed="27.78" disallow="pedestrian bicycle tram rail_urban rail rail_electric rail_fast ship" oneway="0"/>
    <type id="highway.trunk_link" priority="8" numLanes="1" speed="22.22" disallow="pedestrian bicycle tram rail_urban rail rail_electric rail_fast ship" oneway="0"/>
    <type id="highway.unclassified" priority="4" numLanes="1" speed="13.89" disallow="tram rail_urban rail rail_electric rail_fast ship" oneway="0"/>
    <type id="highway.unsurfaced" priority="1" numLanes="1" speed="8.33" disallow="tram rail_urban rail rail_electric rail_fast ship" oneway="0"/>
    <type id="railway.highspeed" priority="21" numLanes="1" speed="69.44" allow="rail_fast" oneway="1"/>
    <type id="railway.light_rail" priority="19" numLanes="1" speed="27.78" allow="rail_urban" oneway="1"/>
    <type id="railway.preserved" priority="16" numLanes="1" speed="27.78" allow="rail" oneway="1"/>
    <type id="railway.rail" priority="20" numLanes="1" speed="44.44" allow="rail" oneway="1"/>
    <type id="railway.subway" priority="18" numLanes="1" speed="27.78" allow="rail_urban" oneway="1"/>
    <type id="railway.tram" priority="17" numLanes="1" speed="13.89" allow="tram" oneway="1"/>

    <edge id=":1204940509_0" function="internal">
        <lane id=":1204940509_0_0" index="0" disallow="tram rail_urban rail rail_electric rail_fast ship" speed="8.33" length="9.40" shape="461.08,162.43 451.70,161.75"/>
    </edge>
    <edge id=":1204940509_1" function="internal">
        <lane id=":1204940509_1_0" index="0" allow="pedestrian delivery bicycle" speed="5.56" length="5.19" shape="461.08,162.43 458.28,161.82 456.39,160.46"/>
    </edge>
    <edge id=":1204940509_2" function="internal">
        <lane id=":1204940509_2_0" index="0" disallow="tram rail_urban rail rail_electric rail_fast ship" speed="3.65" length="2.34" shape="461.08,162.43 459.94,161.55 459.60,160.72"/>
    </edge>
    <edge id=":1204940509_9" function="internal">
        <lane id=":1204940509_9_0" index="0" allow="pedestrian delivery bicycle" speed="5.56" length="5.19" shape="456.39,160.46 455.41,158.35 455.34,155.48"/>
    </edge>
    <edge id=":1204940509_10" function="internal">
        <lane id=":1204940509_10_0" index="0" disallow="tram rail_urban rail rail_electric rail_fast ship" speed="3.65" length="2.34" shape="459.60,160.72 460.06,159.95 461.31,159.24"/>
    </edge>
    <edge id=":1204940509_3" function="internal">
        <lane id=":1204940509_3_0" index="0" allow="pedestrian delivery bicycle" speed="4.99" length="5.05" shape="458.52,155.86 458.55,157.25 459.03,158.28 459.95,158.94 461.31,159.24"/>
    </edge>
    <edge id=":1204940509_4" function="internal">
        <lane id=":1204940509_4_0" index="0" allow="pedestrian delivery bicycle" speed="5.56" length="10.18" shape="458.52,155.86 457.81,158.60 456.44,160.50 454.40,161.55 451.70,161.75"/>
    </edge>
    <edge id=":1204940509_5" function="internal">
        <lane id=":1204940509_5_0" index="0" allow="pedestrian delivery bicycle" speed="2.78" length="4.67" shape="458.52,155.86 457.58,156.96 456.74,157.26 456.00,156.77 455.34,155.48"/>
    </edge>
    <edge id=":1204940509_6" function="internal">
        <lane id=":1204940509_6_0" index="0" allow="pedestrian delivery bicycle" speed="5.19" length="5.19" shape="451.93,158.56 453.28,158.45 454.29,157.90 454.98,156.91 455.34,155.48"/>
    </edge>
    <edge id=":1204940509_7" function="internal">
        <lane id=":1204940509_7_0" index="0" disallow="tram rail_urban rail rail_electric rail_fast ship" speed="8.33" length="9.41" shape="451.93,158.56 461.31,159.24"/>
    </edge>
    <edge id=":1204940509_8" function="internal">
        <lane id=":1204940509_8_0" index="0" disallow="tram rail_urban rail rail_electric rail_fast ship" speed="3.65" length="2.34" shape="451.93,158.56 453.07,159.45 453.41,160.27"/>
    </edge>
    <edge id=":1204940509_11" function="internal">
        <lane id=":1204940509_11_0" index="0" disallow="tram rail_urban rail rail_electric rail_fast ship" speed="3.65" length="2.34" shape="453.41,160.27 452.96,161.04 451.70,161.75"/>
    </edge>
    <edge id=":1204940520_0" function="internal">
        <lane id=":1204940520_0_0" index="0" disallow="tram rail_urban rail rail_electric rail_fast ship" speed="8.33" length="9.40" shape="501.88,139.55 501.16,148.93"/>
    </edge>
    <edge id=":1204940520_1" function="internal">
        <lane id=":1204940520_1_0" index="0" allow="pedestrian delivery bicycle" speed="5.56" length="5.10" shape="501.88,139.55 501.27,142.28 499.94,144.16"/>
    </edge>
    <edge id=":1204940520_2" function="internal">
        <lane id=":1204940520_2_0" index="0" disallow="tram rail_urban rail rail_electric rail_fast ship" speed="3.65" length="2.34" shape="501.88,139.55 500.99,140.69 500.16,141.03"/>
    </edge>
    <edge id=":1204940520_9" function="internal">
        <lane id=":1204940520_9_0" index="0" allow="pedestrian delivery bicycle" speed="5.56" length="5.10" shape="499.94,144.16 497.88,145.18 495.09,145.34"/>
    </edge>
    <edge id=":1204940520_10" function="internal">
        <lane id=":1204940520_10_0" index="0" disallow="tram rail_urban rail rail_electric rail_fast ship" speed="3.65" length="2.34" shape="500.16,141.03 499.39,140.57 498.69,139.31"/>
    </edge>
    <edge id=":1204940520_3" function="internal">
        <lane id=":1204940520_3_0" index="0" allow="pedestrian delivery bicycle" speed="5.03" length="5.01" shape="495.35,142.15 496.72,142.07 497.73,141.57 498.39,140.65 498.69,139.31"/>
    </edge>
    <edge id=":1204940520_4" function="internal">
        <lane id=":1204940520_4_0" index="0" allow="pedestrian delivery bicycle" speed="5.56" length="10.16" shape="495.35,142.15 498.07,142.77 499.95,144.11 500.98,146.16 501.16,148.93"/>
    </edge>
    <edge id=":1204940520_5" function="internal">
        <lane id=":1204940520_5_0" index="0" allow="pedestrian delivery bicycle" speed="2.78" length="4.67" shape="495.35,142.15 496.48,143.05 496.81,143.88 496.35,144.64 495.09,145.34"/>
    </edge>
    <edge id=":1204940520_6" function="internal">
        <lane id=":1204940520_6_0" index="0" allow="pedestrian delivery bicycle" speed="5.06" length="5.02" shape="497.97,148.68 497.88,147.32 497.37,146.31 496.44,145.65 495.09,145.34"/>
    </edge>
    <edge id=":1204940520_7" function="internal">
        <lane id=":1204940520_7_0" index="0" disallow="tram rail_urban rail rail_electric rail_fast ship" speed="8.33" length="9.40" shape="497.97,148.68 498.69,139.31"/>
    </edge>
    <edge id=":1204940520_8" function="internal">
        <lane id=":1204940520_8_0" index="0" disallow="tram rail_urban rail rail_electric rail_fast ship" speed="3.65" length="2.34" shape="497.97,148.68 498.86,147.55 499.69,147.21"/>
    </edge>
    <edge id=":1204940520_11" function="internal">
        <lane id=":1204940520_11_0" index="0" disallow="tram rail_urban rail rail_electric rail_fast ship" speed="3.65" length="2.34" shape="499.69,147.21 500.46,147.67 501.16,148.93"/>
    </edge>
    <edge id=":1206481791_0" function="internal">
        <lane id=":1206481791_0_0" index="0" allow="pedestrian delivery bicycle" speed="6.95" length="11.63" shape="190.88,539.69 187.81,539.97 185.61,541.17 183.58,542.98 181.03,545.11"/>
    </edge>
    <edge id=":1206481791_1" function="internal">
        <lane id=":1206481791_1_0" index="0" disallow="tram rail_urban rail rail_electric rail_fast ship" speed="8.33" length="12.82" shape="190.88,539.69 178.10,538.60"/>
    </edge>
    <edge id=":1206481791_2" function="internal">
        <lane id=":1206481791_2_0" index="0" disallow="tram rail_urban rail rail_electric rail_fast ship" speed="3.65" length="2.34" shape="190.88,539.69 189.74,538.80 189.40,537.98"/>
    </edge>
    <edge id=":1206481791_9" function="internal">
        <lane id=":1206481791_9_0" index="0" disallow="tram rail_urban rail rail_electric rail_fast ship" speed="3.65" length="2.34" shape="189.40,537.98 189.85,537.21 191.11,536.49"/>
    </edge>
    <edge id=":1206481791_3" function="internal">
        <lane id=":1206481791_3_0" index="0" disallow="tram rail_urban rail rail_electric rail_fast ship" speed="8.33" length="12.77" shape="178.38,535.42 191.11,536.49"/>
    </edge>
    <edge id=":1206481791_4" function="internal">
        <lane id=":1206481791_4_0" index="0" allow="pedestrian delivery bicycle" speed="6.95" length="7.37" shape="178.38,535.42 183.95,536.50 185.24,537.60"/>
    </edge>
    <edge id=":1206481791_5" function="internal">
        <lane id=":1206481791_5_0" index="0" disallow="tram rail_urban rail rail_electric rail_fast ship" speed="3.65" length="2.34" shape="178.38,535.42 179.51,536.32 179.84,537.15"/>
    </edge>
    <edge id=":1206481791_10" function="internal">
        <lane id=":1206481791_10_0" index="0" allow="pedestrian delivery bicycle" speed="6.95" length="10.04" shape="185.24,537.60 186.25,538.47 185.28,541.34 181.03,545.11"/>
    </edge>
    <edge id=":1206481791_11" function="internal">
        <lane id=":1206481791_11_0" index="0" disallow="tram rail_urban rail rail_electric rail_fast ship" speed="3.65" length="2.34" shape="179.84,537.15 179.37,537.91 178.10,538.60"/>
    </edge>
    <edge id=":1206481791_6" function="internal">
        <lane id=":1206481791_6_0" index="0" allow="pedestrian delivery bicycle" speed="4.71" length="7.00" shape="179.17,542.50 180.88,540.99 181.27,539.83 180.34,539.04 178.10,538.60"/>
    </edge>
    <edge id=":1206481791_7" function="internal">
        <lane id=":1206481791_7_0" index="0" allow="pedestrian delivery bicycle" speed="6.95" length="13.69" shape="179.17,542.50 182.05,540.29 184.79,538.27 187.71,536.87 191.11,536.49"/>
    </edge>
    <edge id=":1206481791_8" function="internal">
        <lane id=":1206481791_8_0" index="0" allow="pedestrian delivery bicycle" speed="3.65" length="4.67" shape="179.17,542.50 180.61,542.46 181.40,542.87 181.54,543.76 181.03,545.11"/>
    </edge>
    <edge id=":1206481808_0" function="internal">
        <lane id=":1206481808_0_0" index="0" allow="pedestrian delivery bicycle" speed="6.95" length="9.33" shape="148.24,541.81 146.22,539.08 144.46,537.10 142.96,535.87 141.71,535.40"/>
    </edge>
    <edge id=":1206481808_1" function="internal">
        <lane id=":1206481808_1_0" index="0" allow="pedestrian delivery bicycle" speed="6.76" length="15.02" shape="148.24,541.81 146.06,537.66 146.17,534.84 148.57,533.35 153.26,533.20"/>
    </edge>
    <edge id=":1206481808_2" function="internal">
        <lane id=":1206481808_2_0" index="0" allow="pedestrian delivery bicycle" speed="3.65" length="4.67" shape="148.24,541.81 148.22,540.37 148.65,539.59 149.54,539.46 150.88,539.99"/>
    </edge>
    <edge id=":1206481808_3" function="internal">
        <lane id=":1206481808_3_0" index="0" allow="pedestrian delivery bicycle" speed="4.66" length="6.29" shape="152.98,536.39 151.01,536.45 150.01,537.07 149.96,538.26 150.88,539.99"/>
    </edge>
    <edge id=":1206481808_4" function="internal">
        <lane id=":1206481808_4_0" index="0" disallow="tram rail_urban rail rail_electric rail_fast ship" speed="8.33" length="11.31" shape="152.98,536.39 141.71,535.40"/>
    </edge>
    <edge id=":1206481808_5" function="internal">
        <lane id=":1206481808_5_0" index="0" disallow="tram rail_urban rail rail_electric rail_fast ship" speed="3.65" length="2.34" shape="152.98,536.39 151.85,535.49 151.52,534.65"/>
    </edge>
    <edge id=":1206481808_9" function="internal">
        <lane id=":1206481808_9_0" index="0" disallow="tram rail_urban rail rail_electric rail_fast ship" speed="3.65" length="2.34" shape="151.52,534.65 151.99,533.89 153.26,533.20"/>
    </edge>
    <edge id=":1206481808_6" function="internal">
        <lane id=":1206481808_6_0" index="0" disallow="tram rail_urban rail rail_electric rail_fast ship" speed="8.33" length="11.31" shape="141.99,532.21 153.26,533.20"/>
    </edge>
    <edge id=":1206481808_7" function="internal">
        <lane id=":1206481808_7_0" index="0" allow="pedestrian delivery bicycle" speed="6.95" length="4.37" shape="141.99,532.21 143.95,532.82 145.85,534.15"/>
    </edge>
    <edge id=":1206481808_8" function="internal">
        <lane id=":1206481808_8_0" index="0" disallow="tram rail_urban rail rail_electric rail_fast ship" speed="3.65" length="2.34" shape="141.99,532.21 143.11,533.11 143.44,533.94"/>
    </edge>
    <edge id=":1206481808_10" function="internal">
        <lane id=":1206481808_10_0" index="0" allow="pedestrian delivery bicycle" speed="6.95" length="7.73" shape="145.85,534.15 146.08,534.32 148.39,536.71 150.88,539.99"/>
    </edge>
    <edge id=":1206481808_11" function="internal">
        <lane id=":1206481808_11_0" index="0" disallow="tram rail_urban rail rail_electric rail_fast ship" speed="3.65" length="2.34" shape="143.44,533.94 142.97,534.70 141.71,535.40"/>
    </edge>
    <edge id=":1349668349_0" function="internal">
        <lane id=":1349668349_0_0" index="0" disallow="tram rail_urban rail rail_electric rail_fast ship" speed="3.65" length="4.67" shape="1107.81,97.04 1109.25,96.90 1110.06,97.26 1110.26,98.14 1109.84,99.51"/>
    </edge>
    <edge id=":1419121873_0" function="internal">
        <lane id=":1419121873_0_0" index="0" disallow="tram rail_urban rail rail_electric rail_fast ship" speed="3.65" length="4.67" shape="328.62,610.73 327.71,611.85 326.88,612.18 326.12,611.71 325.43,610.45"/>
    </edge>
    <edge id=":1604528506_0" function="internal">
        <lane id=":1604528506_0_0" index="0" disallow="tram rail_urban rail rail_electric rail_fast ship" speed="8.33" length="5.02" shape="874.05,175.10 869.87,177.88"/>
    </edge>
    <edge id=":1604528506_1" function="internal">
        <lane id=":1604528506_1_0" index="0" disallow="tram rail_urban rail rail_electric rail_fast ship" speed="3.65" length="4.67" shape="874.05,175.10 872.61,175.10 871.83,174.65 871.72,173.77 872.28,172.44"/>
    </edge>
    <edge id=":1604528506_2" function="internal">
        <lane id=":1604528506_2_0" index="0" disallow="tram rail_urban rail rail_electric rail_fast ship" speed="8.33" length="5.01" shape="868.10,175.21 872.28,172.44"/>
    </edge>
    <edge id=":1604528506_3" function="internal">
        <lane id=":1604528506_3_0" index="0" disallow="tram rail_urban rail rail_electric rail_fast ship" speed="3.65" length="4.67" shape="868.10,175.21 869.54,175.21 870.32,175.66 870.43,176.55 869.87,177.88"/>
    </edge>
    <edge id=":1759358529_0" function="internal">
        <lane id=":1759358529_0_0" index="0" disallow="tram rail_urban rail rail_electric rail_fast ship" speed="8.33" length="5.19" shape="975.76,103.58 971.52,106.56"/>
    </edge>
    <edge id=":1759358529_1" function="internal">
        <lane id=":1759358529_1_0" index="0" disallow="tram rail_urban rail rail_electric rail_fast ship" speed="3.65" length="2.34" shape="975.76,103.58 974.32,103.60 973.54,103.17"/>
    </edge>
    <edge id=":1759358529_4" function="internal">
        <lane id=":1759358529_4_0" index="0" disallow="tram rail_urban rail rail_electric rail_fast ship" speed="3.65" length="2.34" shape="973.54,103.17 973.41,102.28 973.94,100.94"/>
    </edge>
    <edge id=":1759358529_2" function="internal">
        <lane id=":1759358529_2_0" index="0" disallow="tram rail_urban rail rail_electric rail_fast ship" speed="8.33" length="5.29" shape="969.62,103.98 973.94,100.94"/>
    </edge>
    <edge id=":1759358529_3" function="internal">
        <lane id=":1759358529_3_0" index="0" disallow="tram rail_urban rail rail_electric rail_fast ship" speed="3.65" length="2.34" shape="969.62,103.98 971.06,103.92 971.86,104.32"/>
    </edge>
    <edge id=":1759358529_5" function="internal">
        <lane id=":1759358529_5_0" index="0" disallow="tram rail_urban rail rail_electric rail_fast ship" speed="3.65" length="2.34" shape="971.86,104.32 972.01,105.20 971.52,106.56"/>
    </edge>
    <edge id=":1759358530_0" function="internal">
        <lane id=":1759358530_0_0" index="0" disallow="tram rail_urban rail rail_electric rail_fast ship" speed="8.33" length="5.03" shape="945.22,125.42 941.07,128.25"/>
    </edge>
    <edge id=":1759358530_1" function="internal">
        <lane id=":1759358530_1_0" index="0" disallow="tram rail_urban rail rail_electric rail_fast ship" speed="3.65" length="2.34" shape="945.22,125.42 943.77,125.42 943.00,124.98"/>
    </edge>
    <edge id=":1759358530_4" function="internal">
        <lane id=":1759358530_4_0" index="0" disallow="tram rail_urban rail rail_electric rail_fast ship" speed="3.65" length="2.34" shape="943.00,124.98 942.88,124.10 943.43,122.76"/>
    </edge>
    <edge id=":1759358530_2" function="internal">
        <lane id=":1759358530_2_0" index="0" disallow="tram rail_urban rail rail_electric rail_fast ship" speed="8.33" length="5.08" shape="939.24,125.63 943.43,122.76"/>
    </edge>
    <edge id=":1759358530_3" function="internal">
        <lane id=":1759358530_3_0" index="0" disallow="tram rail_urban rail rail_electric rail_fast ship" speed="3.65" length="2.34" shape="939.24,125.63 940.68,125.60 941.47,126.03"/>
    </edge>
    <edge id=":1759358530_5" function="internal">
        <lane id=":1759358530_5_0" index="0" disallow="tram rail_urban rail rail_electric rail_fast ship" speed="3.65" length="2.34" shape="941.47,126.03 941.59,126.91 941.07,128.25"/>
    </edge>
    <edge id=":1812490332_0" function="internal">
        <lane id=":1812490332_0_0" index="0" allow="pedestrian delivery bicycle" speed="3.65" length="4.67" shape="1163.19,456.70 1164.58,456.33 1165.44,456.56 1165.78,457.38 1165.59,458.81"/>
    </edge>
    <edge id=":1986489455_0" function="internal">
        <lane id=":1986489455_0_0" index="0" disallow="tram rail_urban rail rail_electric rail_fast ship" speed="8.33" length="5.12" shape="1041.36,152.07 1037.21,155.06"/>
    </edge>
    <edge id=":1986489455_1" function="internal">
        <lane id=":1986489455_1_0" index="0" disallow="tram rail_urban rail rail_electric rail_fast ship" speed="3.65" length="4.67" shape="1041.36,152.07 1039.92,152.12 1039.13,151.71 1038.99,150.83 1039.49,149.48"/>
    </edge>
    <edge id=":1986489455_2" function="internal">
        <lane id=":1986489455_2_0" index="0" disallow="tram rail_urban rail rail_electric rail_fast ship" speed="8.33" length="5.12" shape="1035.34,152.47 1039.49,149.48"/>
    </edge>
    <edge id=":1986489455_3" function="internal">
        <lane id=":1986489455_3_0" index="0" disallow="tram rail_urban rail rail_electric rail_fast ship" speed="3.65" length="4.67" shape="1035.34,152.47 1036.78,152.41 1037.57,152.83 1037.72,153.71 1037.21,155.06"/>
    </edge>
    <edge id=":1991146585_0" function="internal">
        <lane id=":1991146585_0_0" index="0" disallow="tram rail_urban rail rail_electric rail_fast ship" speed="8.33" length="5.04" shape="643.09,501.13 642.69,506.15"/>
    </edge>
    <edge id=":1991146585_1" function="internal">
        <lane id=":1991146585_1_0" index="0" disallow="tram rail_urban rail rail_electric rail_fast ship" speed="3.65" length="2.34" shape="643.09,501.13 642.20,502.27 641.37,502.61"/>
    </edge>
    <edge id=":1991146585_4" function="internal">
        <lane id=":1991146585_4_0" index="0" disallow="tram rail_urban rail rail_electric rail_fast ship" speed="3.65" length="2.34" shape="641.37,502.61 640.60,502.15 639.90,500.89"/>
    </edge>
    <edge id=":1991146585_2" function="internal">
        <lane id=":1991146585_2_0" index="0" disallow="tram rail_urban rail rail_electric rail_fast ship" speed="8.33" length="5.01" shape="639.50,505.89 639.90,500.89"/>
    </edge>
    <edge id=":1991146585_3" function="internal">
        <lane id=":1991146585_3_0" index="0" disallow="tram rail_urban rail rail_electric rail_fast ship" speed="3.65" length="2.34" shape="639.50,505.89 640.40,504.76 641.23,504.43"/>
    </edge>
    <edge id=":1991146585_5" function="internal">
        <lane id=":1991146585_5_0" index="0" disallow="tram rail_urban rail rail_electric rail_fast ship" speed="3.65" length="2.34" shape="641.23,504.43 641.99,504.89 642.69,506.15"/>
    </edge>
    <edge id=":20246257_0" function="internal">
        <lane id=":20246257_0_0" index="0" disallow="tram rail_urban rail rail_electric rail_fast ship" speed="6.73" length="9.53" shape="213.63,541.25 210.97,541.44 209.00,542.38 207.71,544.09 207.10,546.55"/>
    </edge>
    <edge id=":20246257_1" function="internal">
        <lane id=":20246257_1_0" index="0" disallow="tram rail_urban rail rail_electric rail_fast ship" speed="8.33" length="15.04" shape="213.63,541.25 198.62,540.24"/>
    </edge>
    <edge id=":20246257_2" function="internal">
        <lane id=":20246257_2_0" index="0" disallow="tram rail_urban rail rail_electric rail_fast ship" speed="8.37" length="14.79" shape="213.63,541.25 209.67,540.44 206.83,538.59 205.11,535.69 204.51,531.75"/>
    </edge>
    <edge id=":20246257_3" function="internal">
        <lane id=":20246257_3_0" index="0" disallow="tram rail_urban rail rail_electric rail_fast ship" speed="3.65" length="4.67" shape="213.63,541.25 212.48,540.37 212.13,539.55 212.58,538.78 213.83,538.05"/>
    </edge>
    <edge id=":20246257_4" function="internal">
        <lane id=":20246257_4_0" index="0" disallow="tram rail_urban rail rail_electric rail_fast ship" speed="6.33" length="9.21" shape="209.09,531.78 209.00,534.39 209.76,536.30 211.37,537.52 213.83,538.05"/>
    </edge>
    <edge id=":20246257_5" function="internal">
        <lane id=":20246257_5_0" index="0" disallow="tram rail_urban rail rail_electric rail_fast ship" speed="13.89" length="14.91" shape="209.09,531.78 207.10,546.55"/>
    </edge>
    <edge id=":20246257_6" function="internal">
        <lane id=":20246257_6_0" index="0" disallow="tram rail_urban rail rail_electric rail_fast ship" speed="4.24" length="4.10" shape="209.09,531.78 207.93,533.49 206.78,534.05 206.11,533.71"/>
    </edge>
    <edge id=":20246257_15" function="internal">
        <lane id=":20246257_15_0" index="0" disallow="tram rail_urban rail rail_electric rail_fast ship" speed="4.24" length="2.58" shape="206.11,533.71 205.64,533.47 204.51,531.75"/>
    </edge>
    <edge id=":20246257_7" function="internal">
        <lane id=":20246257_7_0" index="0" disallow="tram rail_urban rail rail_electric rail_fast ship" speed="6.33" length="9.02" shape="198.84,537.05 201.34,536.87 203.12,535.92 204.18,534.22 204.51,531.75"/>
    </edge>
    <edge id=":20246257_8" function="internal">
        <lane id=":20246257_8_0" index="0" disallow="tram rail_urban rail rail_electric rail_fast ship" speed="8.33" length="15.02" shape="198.84,537.05 213.83,538.05"/>
    </edge>
    <edge id=":20246257_9" function="internal">
        <lane id=":20246257_9_0" index="0" disallow="tram rail_urban rail rail_electric rail_fast ship" speed="8.01" length="14.43" shape="198.84,537.05 202.76,537.88 205.45,539.75 206.89,542.64 207.10,546.55"/>
    </edge>
    <edge id=":20246257_10" function="internal">
        <lane id=":20246257_10_0" index="0" disallow="tram rail_urban rail rail_electric rail_fast ship" speed="3.65" length="4.67" shape="198.84,537.05 199.98,537.93 200.33,538.76 199.87,539.52 198.62,540.24"/>
    </edge>
    <edge id=":20246257_11" function="internal">
        <lane id=":20246257_11_0" index="0" disallow="tram rail_urban rail rail_electric rail_fast ship" speed="6.51" length="9.19" shape="203.92,546.26 203.78,543.78 202.85,541.95 201.13,540.77 198.62,540.24"/>
    </edge>
    <edge id=":20246257_12" function="internal">
        <lane id=":20246257_12_0" index="0" disallow="tram rail_urban rail rail_electric rail_fast ship" speed="13.89" length="14.53" shape="203.92,546.26 204.21,542.60 204.40,539.01 204.50,535.42 204.51,531.75"/>
    </edge>
    <edge id=":20246257_13" function="internal">
        <lane id=":20246257_13_0" index="0" disallow="tram rail_urban rail rail_electric rail_fast ship" speed="8.19" length="6.37" shape="203.92,546.26 204.84,542.45 206.30,540.48"/>
    </edge>
    <edge id=":20246257_14" function="internal">
        <lane id=":20246257_14_0" index="0" disallow="tram rail_urban rail rail_electric rail_fast ship" speed="3.65" length="2.34" shape="203.92,546.26 204.82,545.14 205.66,544.81"/>
    </edge>
    <edge id=":20246257_16" function="internal">
        <lane id=":20246257_16_0" index="0" disallow="tram rail_urban rail rail_electric rail_fast ship" speed="8.19" length="8.21" shape="206.30,540.48 206.80,539.82 209.80,538.35 213.83,538.05"/>
    </edge>
    <edge id=":20246257_17" function="internal">
        <lane id=":20246257_17_0" index="0" disallow="tram rail_urban rail rail_electric rail_fast ship" speed="3.65" length="2.34" shape="205.66,544.81 206.42,545.29 207.10,546.55"/>
    </edge>
    <edge id=":2045820585_0" function="internal">
        <lane id=":2045820585_0_0" index="0" disallow="tram rail_urban rail rail_electric rail_fast ship" speed="3.65" length="4.67" shape="202.15,600.45 201.25,601.57 200.41,601.89 199.65,601.42 198.97,600.15"/>
    </edge>
    <edge id=":2071423345_0" function="internal">