<routes>

    <flow id="0" from="beg" begin="0" end="1" number="100"/>

</routes>
