<?xml version='1.0' encoding='UTF-8'?>
<!-- generated on Wed Apr 28 16:33:38 2021 by Eclipse SUMO netconvert Version 1.7.0
<configuration xmlns:xsi="http://www.w3.org/2001/XMLSchema-instance" xsi:noNamespaceSchemaLocation="http://sumo.dlr.de/xsd/netconvertConfiguration.xsd">

    <input>
        <type-files value="/home/yoshida/carla/Co-Simulation/Sumo/util/data/opendrive_netconvert.typ.xml"/>
        <opendrive-files value="/home/yoshida/carla/Import//auto_import/kamioka/map.xodr"/>
    </input>

    <output>
        <output-file value="/tmp/tmpv62qrtb1/map.net.xml"/>
        <output.original-names value="true"/>
    </output>

    <processing>
        <geometry.remove value="true"/>
        <geometry.min-radius.fix value="true"/>
        <geometry.max-grade.fix value="false"/>
    </processing>

    <tls_building>
        <tls.discard-loaded value="true"/>
        <tls.left-green.time value="0"/>
    </tls_building>

    <junctions>
        <rectangular-lane-cut value="true"/>
    </junctions>

    <formats>
        <opendrive.import-all-lanes value="true"/>
        <opendrive.curve-resolution value="1"/>
    </formats>

    <report>
        <aggregate-warnings value="5"/>
    </report>

</configuration>
-->
<net xmlns:xsi="http://www.w3.org/2001/XMLSchema-instance" version="1.6" junctionCornerDetail="5" rectangularLaneCut="true" limitTurnSpeed="5.50" xsi:noNamespaceSchemaLocation="http://sumo.dlr.de/xsd/net_file.xsd">
  <location netOffset="2.66,-251.41" convBoundary="0.00,0.00,583.37,936.66" origBoundary="0.000000,0.000000,0.000000,0.000000" projParameter="+proj=tmerc +lat_0=35.4045016 +lon_0=139.5896303 +x_0=0 +y_0=0 +ellps=GRS80 +units=m +no_defs"/>
  <type id="bidirectional" priority="1" speed="1.39" disallow="pedestrian tram rail_urban rail rail_electric rail_fast ship" width="3.65"/>
  <type id="biking" priority="-1" speed="5.56" allow="bicycle" width="1.50"/>
  <type id="border" priority="0" speed="1.39" disallow="all" discard="1" width="0.10"/>
  <type id="driving" priority="1" speed="13.89" disallow="pedestrian tram rail_urban rail rail_electric rail_fast ship" width="3.65"/>
  <type id="entry" priority="1" speed="22.22" disallow="pedestrian tram rail_urban rail rail_electric rail_fast ship" width="3.65"/>
  <type id="exit" priority="1" speed="22.22" disallow="pedestrian tram rail_urban rail rail_electric rail_fast ship" width="3.65"/>
  <type id="median" priority="0" speed="1.39" disallow="all" discard="1" width="0.10"/>
  <type id="mwyEntry" priority="1" speed="22.22" allow="private emergency authority army vip passenger hov taxi bus coach delivery truck trailer motorcycle evehicle custom1 custom2" width="3.65"/>
  <type id="mwyExit" priority="1" speed="22.22" allow="private emergency authority army vip passenger hov taxi bus coach delivery truck trailer motorcycle evehicle custom1 custom2" width="3.65"/>
  <type id="none" priority="0" speed="1.39" disallow="all" discard="1" width="1.00"/>
  <type id="offRamp" priority="1" speed="22.22" allow="private emergency authority army vip passenger hov taxi bus coach delivery truck trailer motorcycle evehicle custom1 custom2" width="3.65"/>
  <type id="onRamp" priority="1" speed="22.22" allow="private emergency authority army vip passenger hov taxi bus coach delivery truck trailer motorcycle evehicle custom1 custom2" width="3.65"/>
  <type id="parking" priority="1" speed="1.39" disallow="pedestrian tram rail_urban rail rail_electric rail_fast ship" width="2.50"/>
  <type id="rail" priority="3" speed="33.33" allow="rail_urban rail rail_electric rail_fast" width="3.65"/>
  <type id="restricted" priority="0" speed="13.89" disallow="all" width="3.65"/>
  <type id="roadWorks" priority="0" speed="1.39" allow="authority" width="3.65"/>
  <type id="shoulder" priority="0" speed="1.39" disallow="all" discard="1" width="1.00"/>
  <type id="sidewalk" priority="-2" speed="2.78" allow="pedestrian" width="2.50"/>
  <type id="special1" priority="1" speed="22.22" allow="custom1" discard="1" width="3.65"/>
  <type id="special2" priority="1" speed="22.22" allow="custom2" discard="1" width="3.65"/>
  <type id="special3" priority="1" speed="22.22" allow="custom1 custom2" discard="1" width="3.65"/>
  <type id="stop" priority="1" speed="13.89" disallow="pedestrian tram rail_urban rail rail_electric rail_fast ship" width="3.65"/>
  <type id="tram" priority="2" speed="13.89" allow="tram" width="3.65"/>
  <edge id=":100_0" function="internal">
    <lane id=":100_0_0" index="0" disallow="pedestrian tram rail_urban rail rail_electric rail_fast ship" speed="8.35" length="11.72" width="4.00" shape="238.85,303.28 237.11,301.38 234.76,300.30 231.82,300.05 228.27,300.62">
      <param key="origId" value="256_-1"/>
    </lane>
  </edge>
  <edge id=":100_1" function="internal">
    <lane id=":100_1_0" index="0" disallow="pedestrian tram rail_urban rail rail_electric rail_fast ship" speed="13.89" length="16.52" width="4.00" shape="238.85,303.28 236.74,299.90 234.50,296.26 232.36,292.56 230.54,289.02">
      <param key="origId" value="255_-1"/>
    </lane>
  </edge>
  <edge id=":100_2" function="internal">
    <lane id=":100_2_0" index="0" disallow="pedestrian tram rail_urban rail rail_electric rail_fast ship" speed="6.51" length="10.03" width="4.00" shape="227.27,296.75 229.78,295.67 231.16,294.03 231.42,291.81 230.54,289.02">
      <param key="origId" value="257_-1"/>
    </lane>
  </edge>
  <edge id=":101_0" function="internal">
    <lane id=":101_0_0" index="0" disallow="pedestrian tram rail_urban rail rail_electric rail_fast ship" speed="6.82" length="9.35" width="4.00" shape="491.73,490.80 490.34,488.66 488.60,487.43 486.50,487.11 484.03,487.71">
      <param key="origId" value="259_-1"/>
    </lane>
  </edge>
  <edge id=":101_1" function="internal">
    <lane id=":101_1_0" index="0" disallow="pedestrian tram rail_urban rail rail_electric rail_fast ship" speed="13.89" length="15.24" width="4.00" shape="491.73,490.80 490.23,487.32 488.92,483.72 487.79,480.05 486.85,476.38">
      <param key="origId" value="258_-1"/>
    </lane>
  </edge>
  <edge id=":101_2" function="internal">
    <lane id=":101_2_0" index="0" disallow="pedestrian tram rail_urban rail rail_electric rail_fast ship" speed="13.89" length="14.41" width="4.00" shape="490.75,475.49 491.65,479.04 492.68,482.43 493.91,485.76 495.36,489.12">
      <param key="origId" value="263_-1"/>
    </lane>
  </edge>
  <edge id=":101_3" function="internal">
    <lane id=":101_3_0" index="0" disallow="pedestrian tram rail_urban rail rail_electric rail_fast ship" speed="8.88" length="6.40" width="4.00" shape="490.75,475.49 491.08,479.53 490.41,481.77">
      <param key="origId" value="262_-1"/>
    </lane>
  </edge>
  <edge id=":101_6" function="internal">
    <lane id=":101_6_0" index="0" disallow="pedestrian tram rail_urban rail rail_electric rail_fast ship" speed="8.88" length="9.02" width="4.00" shape="490.41,481.77 490.07,482.92 487.72,485.64 484.03,487.71">
      <param key="origId" value="262_-1"/>
    </lane>
  </edge>
  <edge id=":101_4" function="internal">
    <lane id=":101_4_0" index="0" disallow="pedestrian tram rail_urban rail rail_electric rail_fast ship" speed="7.18" length="9.66" width="4.00" shape="482.55,483.99 484.90,482.69 486.39,480.99 487.05,478.89 486.85,476.38">
      <param key="origId" value="261_-1"/>
    </lane>
  </edge>
  <edge id=":101_5" function="internal">
    <lane id=":101_5_0" index="0" disallow="pedestrian tram rail_urban rail rail_electric rail_fast ship" speed="8.58" length="15.55" width="4.00" shape="482.55,483.99 486.65,483.00 490.16,483.52 493.06,485.56 495.36,489.12">
      <param key="origId" value="260_-1"/>
    </lane>
  </edge>
  <edge id=":102_0" function="internal">
    <lane id=":102_0_0" index="0" disallow="pedestrian tram rail_urban rail rail_electric rail_fast ship" speed="6.33" length="9.79" width="4.00" shape="450.95,507.83 450.14,505.15 448.71,503.60 446.64,503.18 443.95,503.89">
      <param key="origId" value="266_-1"/>
    </lane>
  </edge>
  <edge id=":102_1" function="internal">
    <lane id=":102_1_0" index="0" disallow="pedestrian tram rail_urban rail rail_electric rail_fast ship" speed="13.89" length="18.16" width="4.00" shape="450.95,507.83 448.55,489.83">
      <param key="origId" value="265_-1"/>
    </lane>
  </edge>
  <edge id=":102_2" function="internal">
    <lane id=":102_2_0" index="0" disallow="pedestrian tram rail_urban rail rail_electric rail_fast ship" speed="9.83" length="8.07" width="4.00" shape="450.95,507.83 451.23,503.59 452.69,500.06">
      <param key="origId" value="264_-1"/>
    </lane>
  </edge>
  <edge id=":102_12" function="internal">
    <lane id=":102_12_0" index="0" disallow="pedestrian tram rail_urban rail rail_electric rail_fast ship" speed="9.83" length="9.87" width="4.00" shape="452.69,500.06 453.02,499.28 455.91,495.58 459.51,493.18">
      <param key="origId" value="264_-1"/>
    </lane>
  </edge>
  <edge id=":102_3" function="internal">
    <lane id=":102_3_0" index="0" disallow="pedestrian tram rail_urban rail rail_electric rail_fast ship" speed="8.49" length="13.09" width="4.00" shape="460.99,496.89 457.90,498.62 455.85,500.92 454.86,503.79 454.90,507.23">
      <param key="origId" value="275_-1"/>
    </lane>
  </edge>
  <edge id=":102_4" function="internal">
    <lane id=":102_4_0" index="0" disallow="pedestrian tram rail_urban rail rail_electric rail_fast ship" speed="13.89" length="18.41" width="4.00" shape="460.99,496.89 443.95,503.89">
      <param key="origId" value="274_-1"/>
    </lane>
  </edge>
  <edge id=":102_5" function="internal">
    <lane id=":102_5_0" index="0" disallow="pedestrian tram rail_urban rail rail_electric rail_fast ship" speed="8.24" length="17.25" width="4.00" shape="460.99,496.89 456.25,498.03 452.60,497.23 450.03,494.50 448.55,489.83">
      <param key="origId" value="273_-1"/>
    </lane>
  </edge>
  <edge id=":102_6" function="internal">
    <lane id=":102_6_0" index="0" disallow="pedestrian tram rail_urban rail rail_electric rail_fast ship" speed="6.38" length="9.74" width="4.00" shape="452.49,489.17 453.33,491.81 454.78,493.36 456.84,493.82 459.51,493.18">
      <param key="origId" value="272_-1"/>
    </lane>
  </edge>
  <edge id=":102_7" function="internal">
    <lane id=":102_7_0" index="0" disallow="pedestrian tram rail_urban rail rail_electric rail_fast ship" speed="13.89" length="18.21" width="4.00" shape="452.49,489.17 454.90,507.23">
      <param key="origId" value="271_-1"/>
    </lane>
  </edge>
  <edge id=":102_8" function="internal">
    <lane id=":102_8_0" index="0" disallow="pedestrian tram rail_urban rail rail_electric rail_fast ship" speed="9.87" length="8.13" width="4.00" shape="452.49,489.17 452.25,493.36 450.75,497.00">
      <param key="origId" value="270_-1"/>
    </lane>
  </edge>
  <edge id=":102_13" function="internal">
    <lane id=":102_13_0" index="0" disallow="pedestrian tram rail_urban rail rail_electric rail_fast ship" speed="9.87" length="9.85" width="4.00" shape="450.75,497.00 450.47,497.66 447.58,501.40 443.95,503.89">
      <param key="origId" value="270_-1"/>
    </lane>
  </edge>
  <edge id=":102_9" function="internal">
    <lane id=":102_9_0" index="0" disallow="pedestrian tram rail_urban rail rail_electric rail_fast ship" speed="8.53" length="13.15" width="4.00" shape="442.40,500.20 445.54,498.39 447.62,496.05 448.62,493.20 448.55,489.83">
      <param key="origId" value="269_-1"/>
    </lane>
  </edge>
  <edge id=":102_10" function="internal">
    <lane id=":102_10_0" index="0" disallow="pedestrian tram rail_urban rail rail_electric rail_fast ship" speed="13.89" length="18.50" width="4.00" shape="442.40,500.20 459.51,493.18">
      <param key="origId" value="268_-1"/>
    </lane>
  </edge>
  <edge id=":102_11" function="internal">
    <lane id=":102_11_0" index="0" disallow="pedestrian tram rail_urban rail rail_electric rail_fast ship" speed="8.20" length="17.49" width="4.00" shape="442.40,500.20 447.20,498.94 450.89,499.69 453.46,502.45 454.90,507.23">
      <param key="origId" value="267_-1"/>
    </lane>
  </edge>
  <edge id=":103_0" function="internal">
    <lane id=":103_0_0" index="0" disallow="pedestrian tram rail_urban rail rail_electric rail_fast ship" speed="13.89" length="13.54" width="4.00" shape="389.16,533.76 383.91,521.29">
      <param key="origId" value="279_-1"/>
    </lane>
  </edge>
  <edge id=":103_1" function="internal">
    <lane id=":103_1_0" index="0" disallow="pedestrian tram rail_urban rail rail_electric rail_fast ship" speed="8.52" length="7.49" width="4.00" shape="389.16,533.76 387.90,529.46 388.26,526.47">
      <param key="origId" value="278_-1"/>
    </lane>
  </edge>
  <edge id=":103_6" function="internal">
    <lane id=":103_6_0" index="0" disallow="pedestrian tram rail_urban rail rail_electric rail_fast ship" speed="8.52" length="8.86" width="4.00" shape="388.26,526.47 388.34,525.82 390.50,522.83 394.37,520.51">
      <param key="origId" value="278_-1"/>
    </lane>
  </edge>
  <edge id=":103_2" function="internal">
    <lane id=":103_2_0" index="0" disallow="pedestrian tram rail_urban rail rail_electric rail_fast ship" speed="6.75" length="9.76" width="4.00" shape="395.93,524.19 393.61,525.58 392.32,527.36 392.05,529.53 392.80,532.09">
      <param key="origId" value="281_-1"/>
    </lane>
  </edge>
  <edge id=":103_3" function="internal">
    <lane id=":103_3_0" index="0" disallow="pedestrian tram rail_urban rail rail_electric rail_fast ship" speed="7.92" length="14.13" width="4.00" shape="395.93,524.19 391.62,525.51 388.18,525.47 385.61,524.06 383.91,521.29">
      <param key="origId" value="280_-1"/>
    </lane>
  </edge>
  <edge id=":103_4" function="internal">
    <lane id=":103_4_0" index="0" disallow="pedestrian tram rail_urban rail rail_electric rail_fast ship" speed="6.00" length="7.52" width="4.00" shape="387.67,519.92 388.49,521.07 389.88,521.55 391.84,521.36 394.37,520.51">
      <param key="origId" value="277_-1"/>
    </lane>
  </edge>
  <edge id=":103_5" function="internal">
    <lane id=":103_5_0" index="0" disallow="pedestrian tram rail_urban rail rail_electric rail_fast ship" speed="13.89" length="13.21" width="4.00" shape="387.67,519.92 392.80,532.09">
      <param key="origId" value="276_-1"/>
    </lane>
  </edge>
  <edge id=":104_0" function="internal">
    <lane id=":104_0_0" index="0" disallow="pedestrian tram rail_urban rail rail_electric rail_fast ship" speed="13.89" length="11.05" width="4.00" shape="216.82,173.03 218.04,184.00">
      <param key="origId" value="283_-1"/>
    </lane>
  </edge>
  <edge id=":104_1" function="internal">
    <lane id=":104_1_0" index="0" disallow="pedestrian tram rail_urban rail rail_electric rail_fast ship" speed="7.56" length="11.27" width="4.00" shape="216.82,173.03 216.79,176.29 215.90,178.82 214.15,180.61 211.53,181.65">
      <param key="origId" value="282_-1"/>
    </lane>
  </edge>
  <edge id=":104_2" function="internal">
    <lane id=":104_2_0" index="0" disallow="pedestrian tram rail_urban rail rail_electric rail_fast ship" speed="7.03" length="3.47" width="4.00" shape="210.66,177.75 213.57,177.60 214.07,177.83">
      <param key="origId" value="284_-1"/>
    </lane>
  </edge>
  <edge id=":104_3" function="internal">
    <lane id=":104_3_0" index="0" disallow="pedestrian tram rail_urban rail rail_electric rail_fast ship" speed="7.03" length="7.83" width="4.00" shape="214.07,177.83 215.77,178.59 217.26,180.72 218.04,184.00">
      <param key="origId" value="284_-1"/>
    </lane>
  </edge>
  <edge id=":105_0" function="internal">
    <lane id=":105_0_0" index="0" disallow="pedestrian tram rail_urban rail rail_electric rail_fast ship" speed="6.45" length="9.79" width="4.00" shape="397.70,288.48 395.19,289.62 393.81,291.25 393.56,293.38 394.44,295.99">
      <param key="origId" value="287_-1"/>
    </lane>
  </edge>
  <edge id=":105_1" function="internal">
    <lane id=":105_1_0" index="0" disallow="pedestrian tram rail_urban rail rail_electric rail_fast ship" speed="7.65" length="10.86" width="4.00" shape="387.17,281.58 388.71,283.67 390.80,284.88 393.42,285.20 396.59,284.64">
      <param key="origId" value="286_-1"/>
    </lane>
  </edge>
  <edge id=":105_2" function="internal">
    <lane id=":105_2_0" index="0" disallow="pedestrian tram rail_urban rail rail_electric rail_fast ship" speed="13.89" length="16.14" width="4.00" shape="387.17,281.58 394.44,295.99">
      <param key="origId" value="285_-1"/>
    </lane>
  </edge>
  <edge id=":292_0" function="internal">
    <lane id=":292_0_0" index="0" disallow="pedestrian tram rail_urban rail rail_electric rail_fast ship" speed="4.08" length="5.84" width="4.00" shape="478.35,335.24 480.13,335.49 481.02,336.18 481.00,337.30 480.08,338.85">
      <param key="origId" value="293_-1"/>
    </lane>
  </edge>
  <edge id=":296_0" function="internal">
    <lane id=":296_0_0" index="0" disallow="pedestrian tram rail_urban rail rail_electric rail_fast ship" speed="4.08" length="5.84" width="4.00" shape="146.61,568.21 146.67,570.01 146.14,571.00 145.04,571.17 143.35,570.53">
      <param key="origId" value="297_-1"/>
    </lane>
  </edge>
  <edge id=":298_0" function="internal">
    <lane id=":298_0_0" index="0" disallow="pedestrian tram rail_urban rail rail_electric rail_fast ship" speed="4.08" length="5.84" width="4.00" shape="490.35,629.70 489.92,631.45 489.16,632.27 488.05,632.14 486.59,631.08">
      <param key="origId" value="299_-1"/>
    </lane>
  </edge>
  <edge id=":300_0" function="internal">
    <lane id=":300_0_0" index="0" disallow="pedestrian tram rail_urban rail rail_electric rail_fast ship" speed="4.08" length="5.84" width="4.00" shape="41.53,457.32 39.76,457.65 38.70,457.28 38.36,456.22 38.73,454.45">
      <param key="origId" value="301_-1"/>
    </lane>
  </edge>
  <edge id=":302_0" function="internal">
    <lane id=":302_0_0" index="0" disallow="pedestrian tram rail_urban rail rail_electric rail_fast ship" speed="4.08" length="5.84" width="4.00" shape="-0.23,498.98 -1.61,497.83 -2.00,496.78 -1.40,495.84 0.20,495.01">
      <param key="origId" value="303_-1"/>
    </lane>
  </edge>
  <edge id=":308_0" function="internal">
    <lane id=":308_0_0" index="0" disallow="pedestrian tram rail_urban rail rail_electric rail_fast ship" speed="4.08" length="5.84" width="4.00" shape="534.47,563.36 534.54,565.16 534.02,566.15 532.92,566.33 531.23,565.70">
      <param key="origId" value="309_-1"/>
    </lane>
  </edge>
  <edge id=":310_0" function="internal">
    <lane id=":310_0_0" index="0" disallow="pedestrian tram rail_urban rail rail_electric rail_fast ship" speed="4.08" length="5.84" width="4.00" shape="520.44,936.28 519.78,937.96 518.92,938.66 517.83,938.39 516.53,937.14">
      <param key="origId" value="311_-1"/>
    </lane>
  </edge>
  <edge id=":312_0" function="internal">
    <lane id=":312_0_0" index="0" disallow="pedestrian tram rail_urban rail rail_electric rail_fast ship" speed="4.08" length="5.84" width="4.00" shape="193.27,501.34 191.53,500.86 190.74,500.07 190.91,498.97 192.02,497.55">
      <param key="origId" value="313_-1"/>
    </lane>
  </edge>
  <edge id=":314_0" function="internal">
    <lane id=":314_0_0" index="0" disallow="pedestrian tram rail_urban rail rail_electric rail_fast ship" speed="4.08" length="5.84" width="4.00" shape="370.03,180.74 370.24,178.95 370.90,178.05 372.02,178.04 373.59,178.92">
      <param key="origId" value="315_-1"/>
    </lane>
  </edge>
  <edge id=":316_0" function="internal">
    <lane id=":316_0_0" index="0" disallow="pedestrian tram rail_urban rail rail_electric rail_fast ship" speed="4.08" length="5.84" width="4.00" shape="273.99,196.94 274.34,195.17 275.08,194.33 276.19,194.41 277.69,195.42">
      <param key="origId" value="317_-1"/>
    </lane>
  </edge>
  <edge id=":318_0" function="internal">
    <lane id=":318_0_0" index="0" disallow="pedestrian tram rail_urban rail rail_electric rail_fast ship" speed="4.08" length="5.84" width="4.00" shape="251.56,532.90 250.84,534.55 249.94,535.22 248.87,534.90 247.62,533.60">
      <param key="origId" value="319_-1"/>
    </lane>
  </edge>
  <edge id=":322_0" function="internal">
    <lane id=":322_0_0" index="0" disallow="pedestrian tram rail_urban rail rail_electric rail_fast ship" speed="4.08" length="5.84" width="4.00" shape="329.31,684.19 328.37,685.73 327.39,686.27 326.37,685.81 325.31,684.35">
      <param key="origId" value="323_-1"/>
    </lane>
  </edge>
  <edge id=":324_0" function="internal">
    <lane id=":324_0_0" index="0" disallow="pedestrian tram rail_urban rail rail_electric rail_fast ship" speed="4.08" length="5.84" width="4.00" shape="200.48,307.89 200.02,309.63 199.23,310.43 198.12,310.28 196.69,309.18">
      <param key="origId" value="325_-1"/>
    </lane>
  </edge>
  <edge id=":326_0" function="internal">
    <lane id=":326_0_0" index="0" disallow="pedestrian tram rail_urban rail rail_electric rail_fast ship" speed="4.08" length="5.84" width="4.00" shape="152.07,202.12 150.29,202.42 149.24,202.04 148.92,200.96 149.33,199.21">
      <param key="origId" value="327_-1"/>
    </lane>
  </edge>
  <edge id=":328_0" function="internal">
    <lane id=":328_0_0" index="0" disallow="pedestrian tram rail_urban rail rail_electric rail_fast ship" speed="4.08" length="5.84" width="4.00" shape="430.07,289.50 431.77,290.09 432.51,290.93 432.27,292.03 431.07,293.37">
      <param key="origId" value="329_-1"/>
    </lane>
  </edge>
  <edge id=":69_0" function="internal">
    <lane id=":69_0_0" index="0" disallow="pedestrian tram rail_urban rail rail_electric rail_fast ship" speed="9.86" length="16.33" width="4.00" shape="482.34,461.40 480.28,457.98 477.36,455.64 473.60,454.36 468.98,454.15">
      <param key="origId" value="112_-1"/>
    </lane>
  </edge>
  <edge id=":69_1" function="internal">
    <lane id=":69_1_0" index="0" disallow="pedestrian tram rail_urban rail rail_electric rail_fast ship" speed="13.89" length="19.11" width="4.00" shape="482.34,461.40 480.16,457.63 477.02,453.55 473.70,449.55 471.00,446.07">
      <param key="origId" value="111_-1"/>
    </lane>
  </edge>
  <edge id=":69_2" function="internal">
    <lane id=":69_2_0" index="0" disallow="pedestrian tram rail_urban rail rail_electric rail_fast ship" speed="6.48" length="10.98" width="4.00" shape="491.28,452.90 487.96,453.48 485.98,454.83 485.34,456.96 486.04,459.86">
      <param key="origId" value="108_-1"/>
    </lane>
  </edge>
  <edge id=":69_3" function="internal">
    <lane id=":69_3_0" index="0" disallow="pedestrian tram rail_urban rail rail_electric rail_fast ship" speed="13.89" length="22.34" width="4.00" shape="491.28,452.90 468.98,454.15">
      <param key="origId" value="107_-1"/>
    </lane>
  </edge>
  <edge id=":69_4" function="internal">
    <lane id=":69_4_0" index="0" disallow="pedestrian tram rail_urban rail rail_electric rail_fast ship" speed="12.99" length="22.29" width="4.00" shape="491.28,452.90 484.37,452.75 478.68,451.55 474.22,449.33 471.00,446.07">
      <param key="origId" value="106_-1"/>
    </lane>
  </edge>
  <edge id=":69_5" function="internal">
    <lane id=":69_5_0" index="0" disallow="pedestrian tram rail_urban rail rail_electric rail_fast ship" speed="13.89" length="19.94" width="4.00" shape="474.28,443.80 477.05,447.39 480.51,451.64 483.79,455.98 486.04,459.86">
      <param key="origId" value="110_-1"/>
    </lane>
  </edge>
  <edge id=":69_6" function="internal">
    <lane id=":69_6_0" index="0" disallow="pedestrian tram rail_urban rail rail_electric rail_fast ship" speed="7.29" length="6.35" width="4.00" shape="474.28,443.80 476.44,448.04 476.36,449.62">
      <param key="origId" value="109_-1"/>
    </lane>
  </edge>
  <edge id=":69_7" function="internal">
    <lane id=":69_7_0" index="0" disallow="pedestrian tram rail_urban rail rail_electric rail_fast ship" speed="7.29" length="9.67" width="4.00" shape="476.36,449.62 476.28,451.18 473.79,453.22 468.98,454.15">
      <param key="origId" value="109_-1"/>
    </lane>
  </edge>
  <edge id=":70_0" function="internal">
    <lane id=":70_0_0" index="0" disallow="pedestrian tram rail_urban rail rail_electric rail_fast ship" speed="7.43" length="11.29" width="4.00" shape="364.91,469.17 363.42,466.24 361.48,464.41 359.10,463.68 356.26,464.05">
      <param key="origId" value="119_-1"/>
    </lane>
  </edge>
  <edge id=":70_1" function="internal">
    <lane id=":70_1_0" index="0" disallow="pedestrian tram rail_urban rail rail_electric rail_fast ship" speed="13.89" length="17.53" width="4.00" shape="364.91,469.17 358.86,452.71">
      <param key="origId" value="118_-1"/>
    </lane>
  </edge>
  <edge id=":70_2" function="internal">
    <lane id=":70_2_0" index="0" disallow="pedestrian tram rail_urban rail rail_electric rail_fast ship" speed="11.22" length="34.68" width="4.00" shape="400.62,458.97 385.78,460.49 375.51,462.47 369.81,464.90 368.66,467.80">
      <param key="origId" value="117_-1"/>
    </lane>
  </edge>
  <edge id=":70_3" function="internal">
    <lane id=":70_3_0" index="0" disallow="pedestrian tram rail_urban rail rail_electric rail_fast ship" speed="13.89" length="44.65" width="4.00" shape="400.62,458.97 392.26,459.72 378.37,461.11 364.51,462.70 356.26,464.05">
      <param key="origId" value="116_-1"/>
    </lane>
  </edge>
  <edge id=":70_4" function="internal">
    <lane id=":70_4_0" index="0" disallow="pedestrian tram rail_urban rail rail_electric rail_fast ship" speed="13.89" length="43.68" width="4.00" shape="400.62,458.97 383.62,459.67 371.00,458.85 362.74,456.53 358.86,452.71">
      <param key="origId" value="115_-1"/>
    </lane>
  </edge>
  <edge id=":70_5" function="internal">
    <lane id=":70_5_0" index="0" disallow="pedestrian tram rail_urban rail rail_electric rail_fast ship" speed="13.89" length="17.55" width="4.00" shape="362.61,451.32 368.66,467.80">
      <param key="origId" value="114_-1"/>
    </lane>
  </edge>
  <edge id=":70_6" function="internal">
    <lane id=":70_6_0" index="0" disallow="pedestrian tram rail_urban rail rail_electric rail_fast ship" speed="8.45" length="7.14" width="4.00" shape="362.61,451.32 363.57,455.77 363.05,458.31">
      <param key="origId" value="113_-1"/>
    </lane>
  </edge>
  <edge id=":70_9" function="internal">
    <lane id=":70_9_0" index="0" disallow="pedestrian tram rail_urban rail rail_electric rail_fast ship" speed="8.45" length="9.32" width="4.00" shape="363.05,458.31 362.83,459.37 360.40,462.13 356.26,464.05">
      <param key="origId" value="113_-1"/>
    </lane>
  </edge>
  <edge id=":70_7" function="internal">
    <lane id=":70_7_0" index="0" disallow="pedestrian tram rail_urban rail rail_electric rail_fast ship" speed="6.66" length="9.71" width="4.00" shape="355.12,460.22 357.55,459.09 358.99,457.46 359.43,455.33 358.86,452.71">
      <param key="origId" value="121_-1"/>
    </lane>
  </edge>
  <edge id=":70_8" function="internal">
    <lane id=":70_8_0" index="0" disallow="pedestrian tram rail_urban rail rail_electric rail_fast ship" speed="9.07" length="17.47" width="4.00" shape="355.12,460.22 359.61,459.60 363.36,460.65 366.38,463.39 368.66,467.80">
      <param key="origId" value="120_-1"/>
    </lane>
  </edge>
  <edge id=":71_0" function="internal">
    <lane id=":71_0_0" index="0" disallow="pedestrian tram rail_urban rail rail_electric rail_fast ship" speed="6.62" length="9.73" width="4.00" shape="278.52,489.78 277.99,487.13 276.74,485.36 274.76,484.48 272.06,484.48">
      <param key="origId" value="133_-1"/>
    </lane>
  </edge>
  <edge id=":71_1" function="internal">
    <lane id=":71_1_0" index="0" disallow="pedestrian tram rail_urban rail rail_electric rail_fast ship" speed="13.89" length="17.43" width="4.00" shape="278.52,489.78 278.05,472.35">
      <param key="origId" value="132_-1"/>
    </lane>
  </edge>
  <edge id=":71_2" function="internal">
    <lane id=":71_2_0" index="0" disallow="pedestrian tram rail_urban rail rail_electric rail_fast ship" speed="9.26" length="7.68" width="4.00" shape="278.52,489.78 279.22,485.88 281.11,482.67">
      <param key="origId" value="131_-1"/>
    </lane>
  </edge>
  <edge id=":71_12" function="internal">
    <lane id=":71_12_0" index="0" disallow="pedestrian tram rail_urban rail rail_electric rail_fast ship" speed="9.26" length="9.12" width="4.00" shape="281.11,482.67 281.42,482.15 284.64,479.14 288.39,477.46">
      <param key="origId" value="131_-1"/>
    </lane>
  </edge>
  <edge id=":71_3" function="internal">
    <lane id=":71_3_0" index="0" disallow="pedestrian tram rail_urban rail rail_electric rail_fast ship" speed="7.84" length="11.70" width="4.00" shape="289.23,481.37 286.16,482.45 284.01,484.18 282.80,486.55 282.51,489.56">
      <param key="origId" value="124_-1"/>
    </lane>
  </edge>
  <edge id=":71_4" function="internal">
    <lane id=":71_4_0" index="0" disallow="pedestrian tram rail_urban rail rail_electric rail_fast ship" speed="13.89" length="17.45" width="4.00" shape="289.23,481.37 272.06,484.48">
      <param key="origId" value="123_-1"/>
    </lane>
  </edge>
  <edge id=":71_5" function="internal">
    <lane id=":71_5_0" index="0" disallow="pedestrian tram rail_urban rail rail_electric rail_fast ship" speed="8.25" length="17.32" width="4.00" shape="289.23,481.37 284.35,481.71 280.85,480.32 278.76,477.20 278.05,472.35">
      <param key="origId" value="122_-1"/>
    </lane>
  </edge>
  <edge id=":71_6" function="internal">
    <lane id=":71_6_0" index="0" disallow="pedestrian tram rail_urban rail rail_electric rail_fast ship" speed="6.40" length="9.81" width="4.00" shape="282.05,472.35 282.45,475.10 283.64,476.87 285.62,477.65 288.39,477.46">
      <param key="origId" value="127_-1"/>
    </lane>
  </edge>
  <edge id=":71_7" function="internal">
    <lane id=":71_7_0" index="0" disallow="pedestrian tram rail_urban rail rail_electric rail_fast ship" speed="13.89" length="17.21" width="4.00" shape="282.05,472.35 282.51,489.56">
      <param key="origId" value="126_-1"/>
    </lane>
  </edge>