<?xml version="1.0" encoding="UTF-8"?>

<!-- generated on Tue Nov  4 23:07:31 2014 by SUMO netconvert Version dev-SVN-r17257
This data file and the accompanying materials
are made available under the terms of the Eclipse Public License v2.0
which accompanies this distribution, and is available at
http://www.eclipse.org/legal/epl-v20.html
SPDX-License-Identifier: EPL-2.0
<configuration xmlns:xsi="http://www.w3.org/2001/XMLSchema-instance" xsi:noNamespaceSchemaLocation="http://sumo.dlr.de/xsd/netconvertConfiguration.xsd">

    <input>
        <node-files value="./sumo/gui/visualization/parade/cross1l.nod.xml"/>
        <edge-files value="./sumo/gui/visualization/parade/cross1l.edg.xml"/>
    </input>

    <output>
        <output-file value="./sumo/gui/visualization/parade/net.net.xml"/>
    </output>

    <report>
        <verbose value="true"/>
    </report>

</configuration>
-->

<net version="0.13" xmlns:xsi="http://www.w3.org/2001/XMLSchema-instance" xsi:noNamespaceSchemaLocation="http://sumo.dlr.de/xsd/net_file.xsd">

    <location netOffset="500.00,500.00" convBoundary="0.00,0.00,1000.00,1000.00" origBoundary="-500.00,-500.00,500.00,500.00" projParameter="!"/>

    <edge id=":0_0" function="internal">
        <lane id=":0_0_0" index="0" speed="15.28" length="5.00" shape="498.35,504.75 498.16,503.39 497.58,502.42 496.61,501.84 495.25,501.65"/>
    </edge>
    <edge id=":0_1" function="internal">
        <lane id=":0_1_0" index="0" speed="15.28" length="9.50" shape="498.35,504.75 498.35,495.25"/>
    </edge>
    <edge id=":0_2" function="internal">
        <lane id=":0_2_0" index="0" speed="15.28" length="7.14" shape="498.35,504.75 498.75,501.95 499.95,499.95 501.65,498.93"/>
    </edge>
    <edge id=":0_3" function="internal">
        <lane id=":0_3_0" index="0" speed="15.28" length="2.41" shape="498.35,504.75 499.18,503.51 500.00,503.10"/>
    </edge>
    <edge id=":0_16" function="internal">
        <lane id=":0_16_0" index="0" speed="15.28" length="3.18" shape="501.65,498.93 501.95,498.75 504.75,498.35"/>
    </edge>
    <edge id=":0_17" function="internal">
        <lane id=":0_17_0" index="0" speed="15.28" length="2.41" shape="500.00,503.10 500.82,503.51 501.65,504.75"/>
    </edge>
    <edge id=":0_4" function="internal">
        <lane id=":0_4_0" index="0" speed="15.28" length="5.00" shape="504.75,501.65 503.39,501.84 502.42,502.42 501.84,503.39 501.65,504.75"/>
    </edge>
    <edge id=":0_5" function="internal">
        <lane id=":0_5_0" index="0" speed="15.28" length="9.50" shape="504.75,501.65 495.25,501.65"/>
    </edge>
    <edge id=":0_6" function="internal">
        <lane id=":0_6_0" index="0" speed="15.28" length="10.32" shape="504.75,501.65 501.95,501.25 499.95,500.05 498.75,498.05 498.35,495.25"/>
    </edge>
    <edge id=":0_7" function="internal">
        <lane id=":0_7_0" index="0" speed="15.28" length="4.82" shape="504.75,501.65 503.51,500.82 503.10,500.00 503.51,499.18 504.75,498.35"/>
    </edge>
    <edge id=":0_8" function="internal">
        <lane id=":0_8_0" index="0" speed="15.28" length="5.00" shape="501.65,495.25 501.84,496.61 502.42,497.58 503.39,498.16 504.75,498.35"/>
    </edge>
    <edge id=":0_9" function="internal">
        <lane id=":0_9_0" index="0" speed="15.28" length="9.50" shape="501.65,495.25 501.65,504.75"/>
    </edge>
    <edge id=":0_10" function="internal">
        <lane id=":0_10_0" index="0" speed="15.28" length="7.14" shape="501.65,495.25 501.25,498.05 500.05,500.05 498.35,501.07"/>
    </edge>
    <edge id=":0_11" function="internal">
        <lane id=":0_11_0" index="0" speed="15.28" length="2.41" shape="501.65,495.25 500.82,496.49 500.00,496.90"/>
    </edge>
    <edge id=":0_18" function="internal">
        <lane id=":0_18_0" index="0" speed="15.28" length="3.18" shape="498.35,501.07 498.05,501.25 495.25,501.65"/>
    </edge>
    <edge id=":0_19" function="internal">
        <lane id=":0_19_0" index="0" speed="15.28" length="2.41" shape="500.00,496.90 499.18,496.49 498.35,495.25"/>
    </edge>
    <edge id=":0_12" function="internal">
        <lane id=":0_12_0" index="0" speed="15.28" length="5.00" shape="495.25,498.35 496.61,498.16 497.58,497.58 498.16,496.61 498.35,495.25"/>
    </edge>
    <edge id=":0_13" function="internal">
        <lane id=":0_13_0" index="0" speed="15.28" length="9.50" shape="495.25,498.35 504.75,498.35"/>
    </edge>
    <edge id=":0_14" function="internal">
        <lane id=":0_14_0" index="0" speed="15.28" length="10.32" shape="495.25,498.35 498.05,498.75 500.05,499.95 501.25,501.95 501.65,504.75"/>
    </edge>
    <edge id=":0_15" function="internal">
        <lane id=":0_15_0" index="0" speed="15.28" length="4.82" shape="495.25,498.35 496.49,499.18 496.90,500.00 496.49,500.82 495.25,501.65"/>
    </edge>
    <edge id=":1_0" function="internal">
        <lane id=":1_0_0" index="0" speed="15.28" length="4.82" shape="0.00,501.65 -1.24,500.82 -1.65,500.00 -1.24,499.18 0.00,498.35"/>
    </edge>
    <edge id=":2_0" function="internal">
        <lane id=":2_0_0" index="0" speed="15.28" length="4.82" shape="1000.00,498.35 1001.24,499.18 1001.65,500.00 1001.24,500.82 1000.00,501.65"/>
    </edge>
    <edge id=":3_0" function="internal">
        <lane id=":3_0_0" index="0" speed="15.28" length="4.82" shape="498.35,0.00 499.18,-1.24 500.00,-1.65 500.82,-1.24 501.65,0.00"/>
    </edge>
    <edge id=":4_0" function="internal">
        <lane id=":4_0_0" index="0" speed="15.28" length="4.82" shape="501.65,1000.00 500.82,1001.24 500.00,1001.65 499.18,1001.24 498.35,1000.00"/>
    </edge>

    <edge id="1i" from="1" to="0" priority="78">
        <lane id="1i_0" index="0" speed="19.44" length="495.25" shape="0.00,498.35 495.25,498.35"/>
    </edge>
    <edge id="1o" from="0" to="1" priority="46">
        <lane id="1o_0" index="0" speed="11.11" length="495.25" shape="495.25,501.65 0.00,501.65"/>
    </edge>
    <edge id="2i" from="2" to="0" priority="78">
        <lane id="2i_0" index="0" speed="19.44" length="495.25" shape="1000.00,501.65 504.75,501.65"/>
    </edge>
    <edge id="2o" from="0" to="2" priority="46">
        <lane id="2o_0" index="0" speed="11.11" length="495.25" shape="504.75,498.35 1000.00,498.35"/>
    </edge>
    <edge id="3i" from="3" to="0" priority="78">
        <lane id="3i_0" index="0" speed="19.44" length="495.25" shape="501.65,0.00 501.65,495.25"/>
    </edge>
    <edge id="3o" from="0" to="3" priority="46">
        <lane id="3o_0" index="0" speed="11.11" length="495.25" shape="498.35,495.25 498.35,0.00"/>
    </edge>
    <edge id="4i" from="4" to="0" priority="78">
        <lane id="4i_0" index="0" speed="19.44" length="495.25" shape="498.35,1000.00 498.35,504.75"/>
    </edge>
    <edge id="4o" from="0" to="4" priority="46">
        <lane id="4o_0" index="0" speed="11.11" length="495.25" shape="501.65,504.75 501.65,1000.00"/>
    </edge>

    <junction id="0" type="priority" x="500.00" y="500.00" incLanes="4i_0 2i_0 3i_0 1i_0" intLanes=":0_0_0 :0_1_0 :0_16_0 :0_17_0 :0_4_0 :0_5_0 :0_6_0 :0_7_0 :0_8_0 :0_9_0 :0_18_0 :0_19_0 :0_12_0 :0_13_0 :0_14_0 :0_15_0" shape="496.75,504.75 503.25,504.75 504.75,503.25 504.75,496.75 503.25,495.25 496.75,495.25 495.25,496.75 495.25,503.25">
        <request index="0" response="0000000000000000" foes="1000010000100000" cont="0"/>
        <request index="1" response="0000000000000000" foes="0111110001100000" cont="0"/>
        <request index="2" response="0000001100000000" foes="0110001111100000" cont="1"/>
        <request index="3" response="0100001000010000" foes="0100001000010000" cont="1"/>
        <request index="4" response="0000001000000000" foes="0100001000001000" cont="0"/>
        <request index="5" response="0000011000000111" foes="1100011000000111" cont="0"/>
        <request index="6" response="0011011000000110" foes="0011111000000110" cont="0"/>
        <request index="7" response="0010000100000100" foes="0010000100000100" cont="0"/>
        <request index="8" response="0000000000000000" foes="0010000010000100" cont="0"/>
        <request index="9" response="0000000000000000" foes="0110000001111100" cont="0"/>
        <request index="10" response="0000000000000011" foes="1110000001100011" cont="1"/>
        <request index="11" response="0001000001000010" foes="0001000001000010" cont="1"/>
        <request index="12" response="0000000000000010" foes="0000100001000010" cont="0"/>
        <request index="13" response="0000011100000110" foes="0000011111000110" cont="0"/>
        <request index="14" response="0000011000110110" foes="0000011000111110" cont="0"/>
        <request index="15" response="0000010000100001" foes="0000010000100001" cont="0"/>
    </junction>
    <junction id="1" type="priority" x="0.00" y="500.00" incLanes="1o_0" intLanes=":1_0_0" shape="-0.00,499.95 -0.00,496.75 0.00,503.25 0.00,500.05">
        <request index="0" response="0" foes="0" cont="0"/>
    </junction>
    <junction id="2" type="priority" x="1000.00" y="500.00" incLanes="2o_0" intLanes=":2_0_0" shape="1000.00,500.05 1000.00,503.25 1000.00,496.75 1000.00,499.95">
        <request index="0" response="0" foes="0" cont="0"/>
    </junction>
    <junction id="3" type="priority" x="500.00" y="0.00" incLanes="3o_0" intLanes=":3_0_0" shape="500.05,-0.00 503.25,-0.00 496.75,0.00 499.95,0.00">
        <request index="0" response="0" foes="0" cont="0"/>
    </junction>
    <junction id="4" type="priority" x="500.00" y="1000.00" incLanes="4o_0" intLanes=":4_0_0" shape="499.95,1000.00 496.75,1000.00 503.25,1000.00 500.05,1000.00">
        <request index="0" response="0" foes="0" cont="0"/>
    </junction>

    <junction id=":0_16_0" type="internal" x="501.65" y="498.93" incLanes=":0_2_0 3i_0" intLanes=":0_5_0 :0_6_0 :0_7_0 :0_8_0 :0_9_0 :0_13_0 :0_14_0"/>
    <junction id=":0_17_0" type="internal" x="500.00" y="503.10" incLanes=":0_3_0 1i_0 2i_0 3i_0" intLanes=":0_4_0 :0_9_0 :0_14_0"/>
    <junction id=":0_18_0" type="internal" x="498.35" y="501.07" incLanes=":0_10_0 4i_0" intLanes=":0_0_0 :0_1_0 :0_5_0 :0_6_0 :0_13_0 :0_14_0 :0_15_0"/>
    <junction id=":0_19_0" type="internal" x="500.00" y="496.90" incLanes=":0_11_0 1i_0 2i_0 4i_0" intLanes=":0_1_0 :0_6_0 :0_12_0"/>

    <connection from="1i" to="3o" fromLane="0" toLane="0" via=":0_12_0" dir="r" state="m"/>
    <connection from="1i" to="2o" fromLane="0" toLane="0" via=":0_13_0" dir="s" state="m"/>
    <connection from="1i" to="4o" fromLane="0" toLane="0" via=":0_14_0" dir="l" state="m"/>
    <connection from="1i" to="1o" fromLane="0" toLane="0" via=":0_15_0" dir="t" state="m"/>
    <connection from="1o" to="1i" fromLane="0" toLane="0" via=":1_0_0" dir="t" state="M"/>
    <connection from="2i" to="4o" fromLane="0" toLane="0" via=":0_4_0" dir="r" state="m"/>
    <connection from="2i" to="1o" fromLane="0" toLane="0" via=":0_5_0" dir="s" state="m"/>
    <connection from="2i" to="3o" fromLane="0" toLane="0" via=":0_6_0" dir="l" state="m"/>
    <connection from="2i" to="2o" fromLane="0" toLane="0" via=":0_7_0" dir="t" state="m"/>
    <connection from="2o" to="2i" fromLane="0" toLane="0" via=":2_0_0" dir="t" state="M"/>
    <connection from="3i" to="2o" fromLane="0" toLane="0" via=":0_8_0" dir="r" state="M"/>
    <connection from="3i" to="4o" fromLane="0" toLane="0" via=":0_9_0" dir="s" state="M"/>
    <connection from="3i" to="1o" fromLane="0" toLane="0" via=":0_10_0" dir="l" state="m"/>
    <connection from="3i" to="3o" fromLane="0" toLane="0" via=":0_11_0" dir="t" state="m"/>
    <connection from="3o" to="3i" fromLane="0" toLane="0" via=":3_0_0" dir="t" state="M"/>
    <connection from="4i" to="1o" fromLane="0" toLane="0" via=":0_0_0" dir="r" state="M"/>
    <connection from="4i" to="3o" fromLane="0" toLane="0" via=":0_1_0" dir="s" state="M"/>
    <connection from="4i" to="2o" fromLane="0" toLane="0" via=":0_2_0" dir="l" state="m"/>
    <connection from="4i" to="4o" fromLane="0" toLane="0" via=":0_3_0" dir="t" state="m"/>
    <connection from="4o" to="4i" fromLane="0" toLane="0" via=":4_0_0" dir="t" state="M"/>

    <connection from=":0_0" to="1o" fromLane="0" toLane="0" dir="s" state="M"/>
    <connection from=":0_1" to="3o" fromLane="0" toLane="0" dir="s" state="M"/>
    <connection from=":0_2" to="2o" fromLane="0" toLane="0" via=":0_16_0" dir="s" state="m"/>
    <connection from=":0_16" to="2o" fromLane="0" toLane="0" dir="s" state="M"/>
    <connection from=":0_3" to="4o" fromLane="0" toLane="0" via=":0_17_0" dir="s" state="m"/>
    <connection from=":0_17" to="4o" fromLane="0" toLane="0" dir="s" state="M"/>
    <connection from=":0_4" to="4o" fromLane="0" toLane="0" dir="s" state="M"/>
    <connection from=":0_5" to="1o" fromLane="0" toLane="0" dir="s" state="M"/>
    <connection from=":0_6" to="3o" fromLane="0" toLane="0" dir="s" state="M"/>
    <connection from=":0_7" to="2o" fromLane="0" toLane="0" dir="s" state="M"/>
    <connection from=":0_8" to="2o" fromLane="0" toLane="0" dir="s" state="M"/>
    <connection from=":0_9" to="4o" fromLane="0" toLane="0" dir="s" state="M"/>
    <connection from=":0_10" to="1o" fromLane="0" toLane="0" via=":0_18_0" dir="s" state="m"/>
    <connection from=":0_18" to="1o" fromLane="0" toLane="0" dir="s" state="M"/>
    <connection from=":0_11" to="3o" fromLane="0" toLane="0" via=":0_19_0" dir="s" state="m"/>
    <connection from=":0_19" to="3o" fromLane="0" toLane="0" dir="s" state="M"/>
    <connection from=":0_12" to="3o" fromLane="0" toLane="0" dir="s" state="M"/>
    <connection from=":0_13" to="2o" fromLane="0" toLane="0" dir="s" state="M"/>
    <connection from=":0_14" to="4o" fromLane="0" toLane="0" dir="s" state="M"/>
    <connection from=":0_15" to="1o" fromLane="0" toLane="0" dir="s" state="M"/>
    <connection from=":1_0" to="1i" fromLane="0" toLane="0" dir="s" state="M"/>
    <connection from=":2_0" to="2i" fromLane="0" toLane="0" dir="s" state="M"/>
    <connection from=":3_0" to="3i" fromLane="0" toLane="0" dir="s" state="M"/>
    <connection from=":4_0" to="4i" fromLane="0" toLane="0" dir="s" state="M"/>

</net>
