<?xml version="1.0" encoding="UTF-8"?>

<configuration xmlns:xsi="http://www.w3.org/2001/XMLSchema-instance" xsi:noNamespaceSchemaLocation="http://sumo.dlr.de/xsd/sumoConfiguration.xsd">
    <input>
        <net-file value="sumo_for_vfc.net.xml"/>
        <route-files value="carlavtypes.rou.xml, sumo_for_vfc.rou.xml"/>
        <additional-files value="sumo_for_vfc.poly.xml"/>
    </input>
    
    <gui_only>
        <gui-settings-file value="viewsettings.xml"/>
    </gui_only>
</configuration>
