<?xml version="1.0" encoding="UTF-8"?>

<!-- generated on Mon Apr 27 19:52:46 2020 by Eclipse SUMO netgenerate Version v1_5_0+1309-533c90b613
-->

<xsd:schema elementFormDefault="qualified" xmlns:xsd="http://www.w3.org/2001/XMLSchema">

    <xsd:include schemaLocation="baseTypes.xsd"/>
    <xsd:element name="configuration" type="configurationType"/>

    <xsd:complexType name="configurationType">
        <xsd:all>
            <xsd:element name="grid_network" type="grid_networkTopicType" minOccurs="0"/>
            <xsd:element name="spider_network" type="spider_networkTopicType" minOccurs="0"/>
            <xsd:element name="random_network" type="random_networkTopicType" minOccurs="0"/>
            <xsd:element name="input" type="inputTopicType" minOccurs="0"/>
            <xsd:element name="output" type="outputTopicType" minOccurs="0"/>
            <xsd:element name="processing" type="processingTopicType" minOccurs="0"/>
            <xsd:element name="building_defaults" type="building_defaultsTopicType" minOccurs="0"/>
            <xsd:element name="tls_building" type="tls_buildingTopicType" minOccurs="0"/>
            <xsd:element name="edge_removal" type="edge_removalTopicType" minOccurs="0"/>
            <xsd:element name="unregulated_nodes" type="unregulated_nodesTopicType" minOccurs="0"/>
            <xsd:element name="junctions" type="junctionsTopicType" minOccurs="0"/>
            <xsd:element name="pedestrian" type="pedestrianTopicType" minOccurs="0"/>
            <xsd:element name="bicycle" type="bicycleTopicType" minOccurs="0"/>
            <xsd:element name="report" type="reportTopicType" minOccurs="0"/>
            <xsd:element name="random_number" type="random_numberTopicType" minOccurs="0"/>
        </xsd:all>
    </xsd:complexType>

    <xsd:complexType name="grid_networkTopicType">
        <xsd:all>
            <xsd:element name="grid" type="boolOptionType" minOccurs="0"/>
            <xsd:element name="grid.number" type="intOptionType" minOccurs="0"/>
            <xsd:element name="grid.length" type="floatOptionType" minOccurs="0"/>
            <xsd:element name="grid.x-number" type="intOptionType" minOccurs="0"/>
            <xsd:element name="grid.y-number" type="intOptionType" minOccurs="0"/>
            <xsd:element name="grid.x-length" type="floatOptionType" minOccurs="0"/>
            <xsd:element name="grid.y-length" type="floatOptionType" minOccurs="0"/>
            <xsd:element name="grid.attach-length" type="floatOptionType" minOccurs="0"/>
        </xsd:all>
    </xsd:complexType>

    <xsd:complexType name="spider_networkTopicType">
        <xsd:all>
            <xsd:element name="spider" type="boolOptionType" minOccurs="0"/>
            <xsd:element name="spider.arm-number" type="intOptionType" minOccurs="0"/>
            <xsd:element name="spider.circle-number" type="intOptionType" minOccurs="0"/>
            <xsd:element name="spider.space-radius" type="floatOptionType" minOccurs="0"/>
            <xsd:element name="spider.omit-center" type="boolOptionType" minOccurs="0"/>
        </xsd:all>
    </xsd:complexType>

    <xsd:complexType name="random_networkTopicType">
        <xsd:all>
            <xsd:element name="rand" type="boolOptionType" minOccurs="0"/>
            <xsd:element name="rand.iterations" type="intOptionType" minOccurs="0"/>
            <xsd:element name="rand.bidi-probability" type="floatOptionType" minOccurs="0"/>
            <xsd:element name="rand.max-distance" type="floatOptionType" minOccurs="0"/>
            <xsd:element name="rand.min-distance" type="floatOptionType" minOccurs="0"/>
            <xsd:element name="rand.min-angle" type="floatOptionType" minOccurs="0"/>
            <xsd:element name="rand.num-tries" type="intOptionType" minOccurs="0"/>
            <xsd:element name="rand.connectivity" type="floatOptionType" minOccurs="0"/>
            <xsd:element name="rand.neighbor-dist1" type="floatOptionType" minOccurs="0"/>
            <xsd:element name="rand.neighbor-dist2" type="floatOptionType" minOccurs="0"/>
            <xsd:element name="rand.neighbor-dist3" type="floatOptionType" minOccurs="0"/>
            <xsd:element name="rand.neighbor-dist4" type="floatOptionType" minOccurs="0"/>
            <xsd:element name="rand.neighbor-dist5" type="floatOptionType" minOccurs="0"/>
            <xsd:element name="rand.neighbor-dist6" type="floatOptionType" minOccurs="0"/>
            <xsd:element name="rand.random-lanenumber" type="boolOptionType" minOccurs="0"/>
            <xsd:element name="rand.random-priority" type="boolOptionType" minOccurs="0"/>
            <xsd:element name="rand.grid" type="boolOptionType" minOccurs="0"/>
        </xsd:all>
    </xsd:complexType>

    <xsd:complexType name="inputTopicType">
        <xsd:all>
            <xsd:element name="type-files" type="fileOptionType" minOccurs="0"/>
        </xsd:all>
    </xsd:complexType>

    <xsd:complexType name="outputTopicType">
        <xsd:all>
            <xsd:element name="write-license" type="boolOptionType" minOccurs="0"/>
            <xsd:element name="output-prefix" type="strOptionType" minOccurs="0"/>
            <xsd:element name="precision" type="intOptionType" minOccurs="0"/>
            <xsd:element name="precision.geo" type="intOptionType" minOccurs="0"/>
            <xsd:element name="human-readable-time" type="boolOptionType" minOccurs="0"/>
            <xsd:element name="alphanumerical-ids" type="boolOptionType" minOccurs="0"/>
            <xsd:element name="output-file" type="fileOptionType" minOccurs="0"/>
            <xsd:element name="plain-output-prefix" type="fileOptionType" minOccurs="0"/>
            <xsd:element name="junctions.join-output" type="fileOptionType" minOccurs="0"/>
            <xsd:element name="prefix" type="strOptionType" minOccurs="0"/>
            <xsd:element name="amitran-output" type="fileOptionType" minOccurs="0"/>
            <xsd:element name="matsim-output" type="fileOptionType" minOccurs="0"/>
            <xsd:element name="opendrive-output" type="fileOptionType" minOccurs="0"/>
            <xsd:element name="dlr-navteq-output" type="fileOptionType" minOccurs="0"/>
            <xsd:element name="dlr-navteq.precision" type="intOptionType" minOccurs="0"/>
            <xsd:element name="output.street-names" type="boolOptionType" minOccurs="0"/>
            <xsd:element name="output.original-names" type="boolOptionType" minOccurs="0"/>
            <xsd:element name="street-sign-output" type="fileOptionType" minOccurs="0"/>
            <xsd:element name="opendrive-output.straight-threshold" type="floatOptionType" minOccurs="0"/>
        </xsd:all>
    </xsd:complexType>

    <xsd:complexType name="processingTopicType">
        <xsd:all>
            <xsd:element name="turn-lanes" type="intOptionType" minOccurs="0"/>
            <xsd:element name="turn-lanes.length" type="floatOptionType" minOccurs="0"/>
            <xsd:element name="perturb-x" type="strOptionType" minOccurs="0"/>
            <xsd:element name="perturb-y" type="strOptionType" minOccurs="0"/>
            <xsd:element name="perturb-z" type="strOptionType" minOccurs="0"/>
            <xsd:element name="numerical-ids" type="boolOptionType" minOccurs="0"/>
            <xsd:element name="numerical-ids.node-start" type="intOptionType" minOccurs="0"/>
            <xsd:element name="numerical-ids.edge-start" type="intOptionType" minOccurs="0"/>
            <xsd:element name="reserved-ids" type="fileOptionType" minOccurs="0"/>
            <xsd:element name="geometry.max-grade" type="floatOptionType" minOccurs="0"/>
            <xsd:element name="geometry.max-grade.fix" type="boolOptionType" minOccurs="0"/>
            <xsd:element name="offset.disable-normalization" type="boolOptionType" minOccurs="0"/>
            <xsd:element name="offset.x" type="floatOptionType" minOccurs="0"/>
            <xsd:element name="offset.y" type="floatOptionType" minOccurs="0"/>
            <xsd:element name="offset.z" type="floatOptionType" minOccurs="0"/>
            <xsd:element name="flip-y-axis" type="boolOptionType" minOccurs="0"/>
            <xsd:element name="roundabouts.guess" type="boolOptionType" minOccurs="0"/>
            <xsd:element name="opposites.guess" type="boolOptionType" minOccurs="0"/>
            <xsd:element name="opposites.guess.fix-lengths" type="boolOptionType" minOccurs="0"/>
            <xsd:element name="fringe.guess" type="boolOptionType" minOccurs="0"/>
            <xsd:element name="lefthand" type="boolOptionType" minOccurs="0"/>
            <xsd:element name="edges.join" type="boolOptionType" minOccurs="0"/>
        </xsd:all>
    </xsd:complexType>

    <xsd:complexType name="building_defaultsTopicType">
        <xsd:all>
            <xsd:element name="default.lanenumber" type="intOptionType" minOccurs="0"/>
            <xsd:element name="default.lanewidth" type="floatOptionType" minOccurs="0"/>
            <xsd:element name="default.spreadtype" type="strOptionType" minOccurs="0"/>
            <xsd:element name="default.speed" type="floatOptionType" minOccurs="0"/>
            <xsd:element name="default.priority" type="intOptionType" minOccurs="0"/>
            <xsd:element name="default.type" type="strOptionType" minOccurs="0"/>
            <xsd:element name="default.sidewalk-width" type="floatOptionType" minOccurs="0"/>
            <xsd:element name="default.bikelane-width" type="floatOptionType" minOccurs="0"/>
            <xsd:element name="default.crossing-width" type="floatOptionType" minOccurs="0"/>
            <xsd:element name="default.disallow" type="strOptionType" minOccurs="0"/>
            <xsd:element name="default.junctions.keep-clear" type="boolOptionType" minOccurs="0"/>
            <xsd:element name="default.junctions.radius" type="floatOptionType" minOccurs="0"/>
            <xsd:element name="default.connection-length" type="floatOptionType" minOccurs="0"/>
            <xsd:element name="default.right-of-way" type="strOptionType" minOccurs="0"/>
            <xsd:element name="default-junction-type" type="strOptionType" minOccurs="0"/>
        </xsd:all>
    </xsd:complexType>

    <xsd:complexType name="tls_buildingTopicType">
        <xsd:all>
            <xsd:element name="tls.set" type="strArrayOptionType" minOccurs="0"/>
            <xsd:element name="tls.unset" type="strArrayOptionType" minOccurs="0"/>
            <xsd:element name="tls.guess" type="boolOptionType" minOccurs="0"/>
            <xsd:element name="tls.guess.threshold" type="floatOptionType" minOccurs="0"/>
            <xsd:element name="tls.guess.joining" type="boolOptionType" minOccurs="0"/>
            <xsd:element name="tls.join" type="boolOptionType" minOccurs="0"/>
            <xsd:element name="tls.join-dist" type="floatOptionType" minOccurs="0"/>
            <xsd:element name="tls.uncontrolled-within" type="boolOptionType" minOccurs="0"/>
            <xsd:element name="tls.ignore-internal-junction-jam" type="boolOptionType" minOccurs="0"/>
            <xsd:element name="tls.cycle.time" type="intOptionType" minOccurs="0"/>
            <xsd:element name="tls.green.time" type="intOptionType" minOccurs="0"/>
            <xsd:element name="tls.yellow.min-decel" type="floatOptionType" minOccurs="0"/>
            <xsd:element name="tls.yellow.patch-small" type="boolOptionType" minOccurs="0"/>
            <xsd:element name="tls.yellow.time" type="intOptionType" minOccurs="0"/>
            <xsd:element name="tls.red.time" type="intOptionType" minOccurs="0"/>
            <xsd:element name="tls.allred.time" type="intOptionType" minOccurs="0"/>
            <xsd:element name="tls.minor-left.max-speed" type="floatOptionType" minOccurs="0"/>
            <xsd:element name="tls.left-green.time" type="intOptionType" minOccurs="0"/>
            <xsd:element name="tls.crossing-min.time" type="intOptionType" minOccurs="0"/>
            <xsd:element name="tls.crossing-clearance.time" type="intOptionType" minOccurs="0"/>
            <xsd:element name="tls.scramble.time" type="intOptionType" minOccurs="0"/>
            <xsd:element name="tls.half-offset" type="strArrayOptionType" minOccurs="0"/>
            <xsd:element name="tls.quarter-offset" type="strArrayOptionType" minOccurs="0"/>
            <xsd:element name="tls.default-type" type="strOptionType" minOccurs="0"/>
            <xsd:element name="tls.layout" type="strOptionType" minOccurs="0"/>
            <xsd:element name="tls.min-dur" type="intOptionType" minOccurs="0"/>
            <xsd:element name="tls.max-dur" type="intOptionType" minOccurs="0"/>
            <xsd:element name="tls.group-signals" type="boolOptionType" minOccurs="0"/>
            <xsd:element name="tls.ungroup-signals" type="boolOptionType" minOccurs="0"/>
        </xsd:all>
    </xsd:complexType>

    <xsd:complexType name="edge_removalTopicType">
        <xsd:all>
            <xsd:element name="keep-edges.min-speed" type="floatOptionType" minOccurs="0"/>
            <xsd:element name="remove-edges.explicit" type="strArrayOptionType" minOccurs="0"/>
            <xsd:element name="keep-edges.explicit" type="strArrayOptionType" minOccurs="0"/>
            <xsd:element name="keep-edges.input-file" type="fileOptionType" minOccurs="0"/>
            <xsd:element name="remove-edges.input-file" type="fileOptionType" minOccurs="0"/>
            <xsd:element name="keep-edges.in-boundary" type="strArrayOptionType" minOccurs="0"/>
            <xsd:element name="keep-edges.in-geo-boundary" type="strArrayOptionType" minOccurs="0"/>
        </xsd:all>
    </xsd:complexType>

    <xsd:complexType name="unregulated_nodesTopicType">
        <xsd:all>
            <xsd:element name="keep-nodes-unregulated" type="boolOptionType" minOccurs="0"/>
            <xsd:element name="keep-nodes-unregulated.explicit" type="strArrayOptionType" minOccurs="0"/>
            <xsd:element name="keep-nodes-unregulated.district-nodes" type="boolOptionType" minOccurs="0"/>
        </xsd:all>
    </xsd:complexType>

    <xsd:complexType name="junctionsTopicType">
        <xsd:all>
            <xsd:element name="junctions.right-before-left.speed-threshold" type="floatOptionType" minOccurs="0"/>
            <xsd:element name="no-internal-links" type="boolOptionType" minOccurs="0"/>
            <xsd:element name="no-turnarounds" type="boolOptionType" minOccurs="0"/>
            <xsd:element name="no-turnarounds.tls" type="boolOptionType" minOccurs="0"/>
            <xsd:element name="no-turnarounds.geometry" type="boolOptionType" minOccurs="0"/>
            <xsd:element name="no-turnarounds.except-deadend" type="boolOptionType" minOccurs="0"/>
            <xsd:element name="no-turnarounds.except-turnlane" type="boolOptionType" minOccurs="0"/>
            <xsd:element name="no-turnarounds.fringe" type="boolOptionType" minOccurs="0"/>
            <xsd:element name="no-left-connections" type="boolOptionType" minOccurs="0"/>
            <xsd:element name="junctions.join" type="boolOptionType" minOccurs="0"/>
            <xsd:element name="junctions.join-dist" type="floatOptionType" minOccurs="0"/>
            <xsd:element name="junctions.corner-detail" type="intOptionType" minOccurs="0"/>
            <xsd:element name="junctions.internal-link-detail" type="intOptionType" minOccurs="0"/>
            <xsd:element name="junctions.scurve-stretch" type="floatOptionType" minOccurs="0"/>
            <xsd:element name="junctions.join-turns" type="boolOptionType" minOccurs="0"/>
            <xsd:element name="junctions.limit-turn-speed" type="floatOptionType" minOccurs="0"/>
            <xsd:element name="junctions.limit-turn-speed.min-angle" type="floatOptionType" minOccurs="0"/>
            <xsd:element name="junctions.limit-turn-speed.min-angle.railway" type="floatOptionType" minOccurs="0"/>
            <xsd:element name="junctions.limit-turn-speed.warn.straight" type="floatOptionType" minOccurs="0"/>
            <xsd:element name="junctions.limit-turn-speed.warn.turn" type="floatOptionType" minOccurs="0"/>
            <xsd:element name="junctions.small-radius" type="floatOptionType" minOccurs="0"/>
            <xsd:element name="rectangular-lane-cut" type="boolOptionType" minOccurs="0"/>
            <xsd:element name="check-lane-foes.roundabout" type="boolOptionType" minOccurs="0"/>
            <xsd:element name="check-lane-foes.all" type="boolOptionType" minOccurs="0"/>
        </xsd:all>
    </xsd:complexType>

    <xsd:complexType name="pedestrianTopicType">
        <xsd:all>
            <xsd:element name="sidewalks.guess" type="boolOptionType" minOccurs="0"/>
            <xsd:element name="sidewalks.guess.max-speed" type="floatOptionType" minOccurs="0"/>
            <xsd:element name="sidewalks.guess.min-speed" type="floatOptionType" minOccurs="0"/>
            <xsd:element name="sidewalks.guess.from-permissions" type="boolOptionType" minOccurs="0"/>
            <xsd:element name="sidewalks.guess.exclude" type="strArrayOptionType" minOccurs="0"/>
            <xsd:element name="crossings.guess" type="boolOptionType" minOccurs="0"/>
            <xsd:element name="crossings.guess.speed-threshold" type="floatOptionType" minOccurs="0"/>
            <xsd:element name="walkingareas" type="boolOptionType" minOccurs="0"/>
        </xsd:all>
    </xsd:complexType>

    <xsd:complexType name="bicycleTopicType">
        <xsd:all>
            <xsd:element name="bikelanes.guess" type="boolOptionType" minOccurs="0"/>
            <xsd:element name="bikelanes.guess.max-speed" type="floatOptionType" minOccurs="0"/>
            <xsd:element name="bikelanes.guess.min-speed" type="floatOptionType" minOccurs="0"/>
            <xsd:element name="bikelanes.guess.from-permissions" type="boolOptionType" minOccurs="0"/>
            <xsd:element name="bikelanes.guess.exclude" type="strArrayOptionType" minOccurs="0"/>
        </xsd:all>
    </xsd:complexType>

    <xsd:complexType name="reportTopicType">
        <xsd:all>
            <xsd:element name="verbose" type="boolOptionType" minOccurs="0"/>
            <xsd:element name="print-options" type="boolOptionType" minOccurs="0"/>
            <xsd:element name="help" type="boolOptionType" minOccurs="0"/>
            <xsd:element name="version" type="boolOptionType" minOccurs="0"/>
            <xsd:element name="xml-validation" type="strOptionType" minOccurs="0"/>
            <xsd:element name="xml-validation.net" type="strOptionType" minOccurs="0"/>
            <xsd:element name="no-warnings" type="boolOptionType" minOccurs="0"/>
            <xsd:element name="aggregate-warnings" type="intOptionType" minOccurs="0"/>
            <xsd:element name="log" type="fileOptionType" minOccurs="0"/>
            <xsd:element name="message-log" type="fileOptionType" minOccurs="0"/>
            <xsd:element name="error-log" type="fileOptionType" minOccurs="0"/>
        </xsd:all>
    </xsd:complexType>

    <xsd:complexType name="random_numberTopicType">
        <xsd:all>
            <xsd:element name="random" type="boolOptionType" minOccurs="0"/>
            <xsd:element name="seed" type="intOptionType" minOccurs="0"/>
        </xsd:all>
    </xsd:complexType>

</xsd:schema>
