<?xml version="1.0" encoding="UTF-8"?>

<!--
// Copyright (C) 2018 Christoph Sommer <sommer@ccs-labs.org>
//
// Documentation for these modules is at http://veins.car2x.org/
//
// SPDX-License-Identifier: (GPL-2.0-or-later OR CC-BY-SA-4.0)
//
// This program is free software; you can redistribute it and/or modify
// it under the terms of the GNU General Public License as published by
// the Free Software Foundation; either version 2 of the License, or
// (at your option) any later version.
//
// This program is distributed in the hope that it will be useful,
// but WITHOUT ANY WARRANTY; without even the implied warranty of
// MERCHANTABILITY or FITNESS FOR A PARTICULAR PURPOSE.  See the
// GNU General Public License for more details.
//
// You should have received a copy of the GNU General Public License
// along with this program; if not, write to the Free Software
// Foundation, Inc., 59 Temple Place, Suite 330, Boston, MA  02111-1307  USA
//
// -
//
// At your option, you can also redistribute and/or modify this file
// under a
// Creative Commons Attribution-ShareAlike 4.0 International License.
//
// You should have received a copy of the license along with this
// work.  If not, see <http://creativecommons.org/licenses/by-sa/4.0/>.
-->

<!-- generated by SUMO netgenerate Version 0.28.0
<?xml version="1.0" encoding="UTF-8"?>

<configuration xmlns:xsi="http://www.w3.org/2001/XMLSchema-instance" xsi:noNamespaceSchemaLocation="http://sumo.dlr.de/xsd/netgenerateConfiguration.xsd">

    <grid_network>
        <grid value="true"/>
        <grid.number value="2"/>
        <grid.length value="100"/>
        <grid.alphanumerical-ids value="true"/>
    </grid_network>

    <output>
        <output-file value="square.net.xml"/>
    </output>

    <building_defaults>
        <default.lanenumber value="2"/>
    </building_defaults>

</configuration>
-->

<net version="0.27" xmlns:xsi="http://www.w3.org/2001/XMLSchema-instance" xsi:noNamespaceSchemaLocation="http://sumo.dlr.de/xsd/net_file.xsd">

    <location netOffset="0.00,0.00" convBoundary="0.00,0.00,100.00,100.00" origBoundary="0.00,0.00,100.00,100.00" projParameter="!"/>

    <edge id=":A0_0" function="internal">
        <lane id=":A0_0_0" index="0" speed="13.90" length="15.89" shape="-4.95,6.55 -4.23,1.52 -2.08,-2.08 1.52,-4.23 6.55,-4.95"/>
        <lane id=":A0_0_1" index="1" speed="13.90" length="15.89" shape="-1.65,6.55 -1.14,2.96 0.40,0.40 2.96,-1.14 6.55,-1.65"/>
    </edge>
    <edge id=":A0_2" function="internal">
        <lane id=":A0_2_0" index="0" speed="13.90" length="2.69" shape="-1.65,6.55 -0.83,5.31 -0.00,4.90 0.25,5.03"/>
    </edge>
    <edge id=":A0_6" function="internal">
        <lane id=":A0_6_0" index="0" speed="13.90" length="2.13" shape="0.25,5.03 0.82,5.31 1.65,6.55"/>
    </edge>
    <edge id=":A0_3" function="internal">
        <lane id=":A0_3_0" index="0" speed="13.90" length="5.24" shape="6.55,4.95 5.85,5.05 5.35,5.35 5.05,5.85 4.95,6.55"/>
        <lane id=":A0_3_1" index="1" speed="13.90" length="5.24" shape="6.55,1.65 4.41,1.96 2.88,2.87 1.96,4.41 1.65,6.55"/>
    </edge>
    <edge id=":A0_5" function="internal">
        <lane id=":A0_5_0" index="0" speed="13.90" length="2.20" shape="6.55,1.65 5.31,0.83 4.99,0.19"/>
    </edge>
    <edge id=":A0_7" function="internal">
        <lane id=":A0_7_0" index="0" speed="13.90" length="2.62" shape="4.99,0.19 4.90,0.00 5.31,-0.82 6.55,-1.65"/>
    </edge>
    <edge id=":A1_0" function="internal">
        <lane id=":A1_0_0" index="0" speed="13.90" length="15.89" shape="6.55,104.95 1.52,104.23 -2.08,102.08 -4.23,98.48 -4.95,93.45"/>
        <lane id=":A1_0_1" index="1" speed="13.90" length="15.89" shape="6.55,101.65 2.96,101.14 0.40,99.60 -1.14,97.04 -1.65,93.45"/>
    </edge>
    <edge id=":A1_2" function="internal">
        <lane id=":A1_2_0" index="0" speed="13.90" length="2.69" shape="6.55,101.65 5.31,100.82 4.90,100.00 5.03,99.75"/>
    </edge>
    <edge id=":A1_6" function="internal">
        <lane id=":A1_6_0" index="0" speed="13.90" length="2.13" shape="5.03,99.75 5.31,99.17 6.55,98.35"/>
    </edge>
    <edge id=":A1_3" function="internal">
        <lane id=":A1_3_0" index="0" speed="13.90" length="5.24" shape="4.95,93.45 5.05,94.15 5.35,94.65 5.85,94.95 6.55,95.05"/>
        <lane id=":A1_3_1" index="1" speed="13.90" length="5.24" shape="1.65,93.45 1.96,95.59 2.87,97.12 4.41,98.04 6.55,98.35"/>
    </edge>
    <edge id=":A1_5" function="internal">
        <lane id=":A1_5_0" index="0" speed="13.90" length="2.20" shape="1.65,93.45 0.83,94.69 0.19,95.01"/>
    </edge>
    <edge id=":A1_7" function="internal">
        <lane id=":A1_7_0" index="0" speed="13.90" length="2.62" shape="0.19,95.01 0.00,95.10 -0.82,94.69 -1.65,93.45"/>
    </edge>
    <edge id=":B0_0" function="internal">
        <lane id=":B0_0_0" index="0" speed="13.90" length="5.24" shape="95.05,6.55 94.95,5.85 94.65,5.35 94.15,5.05 93.45,4.95"/>
        <lane id=":B0_0_1" index="1" speed="13.90" length="5.24" shape="98.35,6.55 98.04,4.41 97.12,2.87 95.59,1.96 93.45,1.65"/>
    </edge>
    <edge id=":B0_2" function="internal">
        <lane id=":B0_2_0" index="0" speed="13.90" length="2.20" shape="98.35,6.55 99.18,5.31 99.81,4.99"/>
    </edge>
    <edge id=":B0_6" function="internal">
        <lane id=":B0_6_0" index="0" speed="13.90" length="2.62" shape="99.81,4.99 100.00,4.90 100.83,5.31 101.65,6.55"/>
    </edge>
    <edge id=":B0_3" function="internal">
        <lane id=":B0_3_0" index="0" speed="13.90" length="15.89" shape="93.45,-4.95 98.48,-4.23 102.08,-2.08 104.23,1.52 104.95,6.55"/>
        <lane id=":B0_3_1" index="1" speed="13.90" length="15.89" shape="93.45,-1.65 97.04,-1.14 99.60,0.40 101.14,2.96 101.65,6.55"/>
    </edge>
    <edge id=":B0_5" function="internal">
        <lane id=":B0_5_0" index="0" speed="13.90" length="2.69" shape="93.45,-1.65 94.69,-0.83 95.10,0.00 94.97,0.25"/>
    </edge>
    <edge id=":B0_7" function="internal">
        <lane id=":B0_7_0" index="0" speed="13.90" length="2.13" shape="94.97,0.25 94.69,0.83 93.45,1.65"/>
    </edge>
    <edge id=":B1_0" function="internal">
        <lane id=":B1_0_0" index="0" speed="13.90" length="15.89" shape="104.95,93.45 104.23,98.48 102.08,102.08 98.48,104.23 93.45,104.95"/>
        <lane id=":B1_0_1" index="1" speed="13.90" length="15.89" shape="101.65,93.45 101.14,97.04 99.60,99.60 97.04,101.14 93.45,101.65"/>
    </edge>
    <edge id=":B1_2" function="internal">
        <lane id=":B1_2_0" index="0" speed="13.90" length="2.69" shape="101.65,93.45 100.82,94.69 100.00,95.10 99.75,94.97"/>
    </edge>
    <edge id=":B1_6" function="internal">
        <lane id=":B1_6_0" index="0" speed="13.90" length="2.13" shape="99.75,94.97 99.17,94.69 98.35,93.45"/>
    </edge>
    <edge id=":B1_3" function="internal">
        <lane id=":B1_3_0" index="0" speed="13.90" length="5.24" shape="93.45,95.05 94.15,94.95 94.65,94.65 94.95,94.15 95.05,93.45"/>
        <lane id=":B1_3_1" index="1" speed="13.90" length="5.24" shape="93.45,98.35 95.59,98.04 97.12,97.12 98.04,95.59 98.35,93.45"/>
    </edge>
    <edge id=":B1_5" function="internal">
        <lane id=":B1_5_0" index="0" speed="13.90" length="2.20" shape="93.45,98.35 94.69,99.17 95.01,99.81"/>
    </edge>
    <edge id=":B1_7" function="internal">
        <lane id=":B1_7_0" index="0" speed="13.90" length="2.62" shape="95.01,99.81 95.10,100.00 94.69,100.82 93.45,101.65"/>
    </edge>

    <edge id="A0toA1" from="A0" to="A1" priority="-1">
        <lane id="A0toA1_0" index="0" speed="13.90" length="86.90" shape="4.95,6.55 4.95,93.45"/>
        <lane id="A0toA1_1" index="1" speed="13.90" length="86.90" shape="1.65,6.55 1.65,93.45"/>
    </edge>
    <edge id="A0toB0" from="A0" to="B0" priority="-1">
        <lane id="A0toB0_0" index="0" speed="13.90" length="86.90" shape="6.55,-4.95 93.45,-4.95"/>
        <lane id="A0toB0_1" index="1" speed="13.90" length="86.90" shape="6.55,-1.65 93.45,-1.65"/>
    </edge>
    <edge id="A1toA0" from="A1" to="A0" priority="-1">
        <lane id="A1toA0_0" index="0" speed="13.90" length="86.90" shape="-4.95,93.45 -4.95,6.55"/>
        <lane id="A1toA0_1" index="1" speed="13.90" length="86.90" shape="-1.65,93.45 -1.65,6.55"/>
    </edge>
    <edge id="A1toB1" from="A1" to="B1" priority="-1">
        <lane id="A1toB1_0" index="0" speed="13.90" length="86.90" shape="6.55,95.05 93.45,95.05"/>
        <lane id="A1toB1_1" index="1" speed="13.90" length="86.90" shape="6.55,98.35 93.45,98.35"/>
    </edge>
    <edge id="B0toA0" from="B0" to="A0" priority="-1">
        <lane id="B0toA0_0" index="0" speed="13.90" length="86.90" shape="93.45,4.95 6.55,4.95"/>
        <lane id="B0toA0_1" index="1" speed="13.90" length="86.90" shape="93.45,1.65 6.55,1.65"/>
    </edge>
    <edge id="B0toB1" from="B0" to="B1" priority="-1">
        <lane id="B0toB1_0" index="0" speed="13.90" length="86.90" shape="104.95,6.55 104.95,93.45"/>
        <lane id="B0toB1_1" index="1" speed="13.90" length="86.90" shape="101.65,6.55 101.65,93.45"/>
    </edge>
    <edge id="B1toA1" from="B1" to="A1" priority="-1">
        <lane id="B1toA1_0" index="0" speed="13.90" length="86.90" shape="93.45,104.95 6.55,104.95"/>
        <lane id="B1toA1_1" index="1" speed="13.90" length="86.90" shape="93.45,101.65 6.55,101.65"/>
    </edge>
    <edge id="B1toB0" from="B1" to="B0" priority="-1">
        <lane id="B1toB0_0" index="0" speed="13.90" length="86.90" shape="95.05,93.45 95.05,6.55"/>
        <lane id="B1toB0_1" index="1" speed="13.90" length="86.90" shape="98.35,93.45 98.35,6.55"/>
    </edge>

    <junction id="A0" type="priority" x="0.00" y="0.00" incLanes="A1toA0_0 A1toA0_1 B0toA0_0 B0toA0_1" intLanes=":A0_0_0 :A0_0_1 :A0_6_0 :A0_3_0 :A0_3_1 :A0_7_0" shape="-6.55,6.55 6.55,6.55 6.55,-6.55">
        <request index="0" response="000000" foes="100000" cont="0"/>
        <request index="1" response="000000" foes="100000" cont="0"/>
        <request index="2" response="011000" foes="011000" cont="1"/>
        <request index="3" response="000000" foes="000100" cont="0"/>
        <request index="4" response="000000" foes="000100" cont="0"/>
        <request index="5" response="000011" foes="000011" cont="1"/>
    </junction>
    <junction id="A1" type="priority" x="0.00" y="100.00" incLanes="B1toA1_0 B1toA1_1 A0toA1_0 A0toA1_1" intLanes=":A1_0_0 :A1_0_1 :A1_6_0 :A1_3_0 :A1_3_1 :A1_7_0" shape="6.55,106.55 6.55,93.45 -6.55,93.45">
        <request index="0" response="000000" foes="100000" cont="0"/>
        <request index="1" response="000000" foes="100000" cont="0"/>
        <request index="2" response="011000" foes="011000" cont="1"/>
        <request index="3" response="000000" foes="000100" cont="0"/>
        <request index="4" response="000000" foes="000100" cont="0"/>
        <request index="5" response="000011" foes="000011" cont="1"/>
    </junction>
    <junction id="B0" type="priority" x="100.00" y="0.00" incLanes="B1toB0_0 B1toB0_1 A0toB0_0 A0toB0_1" intLanes=":B0_0_0 :B0_0_1 :B0_6_0 :B0_3_0 :B0_3_1 :B0_7_0" shape="93.45,6.55 106.55,6.55 93.45,-6.55">
        <request index="0" response="000000" foes="100000" cont="0"/>
        <request index="1" response="000000" foes="100000" cont="0"/>
        <request index="2" response="011000" foes="011000" cont="1"/>
        <request index="3" response="000000" foes="000100" cont="0"/>
        <request index="4" response="000000" foes="000100" cont="0"/>
        <request index="5" response="000011" foes="000011" cont="1"/>
    </junction>
    <junction id="B1" type="priority" x="100.00" y="100.00" incLanes="B0toB1_0 B0toB1_1 A1toB1_0 A1toB1_1" intLanes=":B1_0_0 :B1_0_1 :B1_6_0 :B1_3_0 :B1_3_1 :B1_7_0" shape="106.55,93.45 93.45,93.45 93.45,106.55">
        <request index="0" response="000000" foes="100000" cont="0"/>
        <request index="1" response="000000" foes="100000" cont="0"/>
        <request index="2" response="011000" foes="011000" cont="1"/>
        <request index="3" response="000000" foes="000100" cont="0"/>
        <request index="4" response="000000" foes="000100" cont="0"/>
        <request index="5" response="000011" foes="000011" cont="1"/>
    </junction>

    <junction id=":A0_6_0" type="internal" x="0.25" y="5.03" incLanes=":A0_2_0 B0toA0_0 B0toA0_1" intLanes=":A0_3_0 :A0_3_1"/>
    <junction id=":A0_7_0" type="internal" x="4.99" y="0.19" incLanes=":A0_5_0 A1toA0_0 A1toA0_1" intLanes=":A0_0_0 :A0_0_1"/>
    <junction id=":A1_6_0" type="internal" x="5.03" y="99.75" incLanes=":A1_2_0 A0toA1_0 A0toA1_1" intLanes=":A1_3_0 :A1_3_1"/>
    <junction id=":A1_7_0" type="internal" x="0.19" y="95.01" incLanes=":A1_5_0 B1toA1_0 B1toA1_1" intLanes=":A1_0_0 :A1_0_1"/>
    <junction id=":B0_6_0" type="internal" x="99.81" y="4.99" incLanes=":B0_2_0 A0toB0_0 A0toB0_1" intLanes=":B0_3_0 :B0_3_1"/>
    <junction id=":B0_7_0" type="internal" x="94.97" y="0.25" incLanes=":B0_5_0 B1toB0_0 B1toB0_1" intLanes=":B0_0_0 :B0_0_1"/>
    <junction id=":B1_6_0" type="internal" x="99.75" y="94.97" incLanes=":B1_2_0 A1toB1_0 A1toB1_1" intLanes=":B1_3_0 :B1_3_1"/>
    <junction id=":B1_7_0" type="internal" x="95.01" y="99.81" incLanes=":B1_5_0 B0toB1_0 B0toB1_1" intLanes=":B1_0_0 :B1_0_1"/>

    <connection from="A0toA1" to="A1toB1" fromLane="0" toLane="0" via=":A1_3_0" dir="r" state="M"/>
    <connection from="A0toA1" to="A1toB1" fromLane="1" toLane="1" via=":A1_3_1" dir="r" state="M"/>
    <connection from="A0toA1" to="A1toA0" fromLane="1" toLane="1" via=":A1_5_0" dir="t" state="m"/>
    <connection from="A0toB0" to="B0toB1" fromLane="0" toLane="0" via=":B0_3_0" dir="l" state="M"/>
    <connection from="A0toB0" to="B0toB1" fromLane="1" toLane="1" via=":B0_3_1" dir="l" state="M"/>
    <connection from="A0toB0" to="B0toA0" fromLane="1" toLane="1" via=":B0_5_0" dir="t" state="m"/>
    <connection from="A1toA0" to="A0toB0" fromLane="0" toLane="0" via=":A0_0_0" dir="l" state="M"/>
    <connection from="A1toA0" to="A0toB0" fromLane="1" toLane="1" via=":A0_0_1" dir="l" state="M"/>
    <connection from="A1toA0" to="A0toA1" fromLane="1" toLane="1" via=":A0_2_0" dir="t" state="m"/>
    <connection from="A1toB1" to="B1toB0" fromLane="0" toLane="0" via=":B1_3_0" dir="r" state="M"/>
    <connection from="A1toB1" to="B1toB0" fromLane="1" toLane="1" via=":B1_3_1" dir="r" state="M"/>
    <connection from="A1toB1" to="B1toA1" fromLane="1" toLane="1" via=":B1_5_0" dir="t" state="m"/>
    <connection from="B0toA0" to="A0toA1" fromLane="0" toLane="0" via=":A0_3_0" dir="r" state="M"/>
    <connection from="B0toA0" to="A0toA1" fromLane="1" toLane="1" via=":A0_3_1" dir="r" state="M"/>
    <connection from="B0toA0" to="A0toB0" fromLane="1" toLane="1" via=":A0_5_0" dir="t" state="m"/>
    <connection from="B0toB1" to="B1toA1" fromLane="0" toLane="0" via=":B1_0_0" dir="l" state="M"/>
    <connection from="B0toB1" to="B1toA1" fromLane="1" toLane="1" via=":B1_0_1" dir="l" state="M"/>
    <connection from="B0toB1" to="B1toB0" fromLane="1" toLane="1" via=":B1_2_0" dir="t" state="m"/>
    <connection from="B1toA1" to="A1toA0" fromLane="0" toLane="0" via=":A1_0_0" dir="l" state="M"/>
    <connection from="B1toA1" to="A1toA0" fromLane="1" toLane="1" via=":A1_0_1" dir="l" state="M"/>
    <connection from="B1toA1" to="A1toB1" fromLane="1" toLane="1" via=":A1_2_0" dir="t" state="m"/>
    <connection from="B1toB0" to="B0toA0" fromLane="0" toLane="0" via=":B0_0_0" dir="r" state="M"/>
    <connection from="B1toB0" to="B0toA0" fromLane="1" toLane="1" via=":B0_0_1" dir="r" state="M"/>
    <connection from="B1toB0" to="B0toB1" fromLane="1" toLane="1" via=":B0_2_0" dir="t" state="m"/>

    <connection from=":A0_0" to="A0toB0" fromLane="0" toLane="0" dir="s" state="M"/>
    <connection from=":A0_0" to="A0toB0" fromLane="1" toLane="1" dir="s" state="M"/>
    <connection from=":A0_2" to="A0toA1" fromLane="0" toLane="1" via=":A0_6_0" dir="s" state="m"/>
    <connection from=":A0_6" to="A0toA1" fromLane="0" toLane="1" dir="s" state="M"/>
    <connection from=":A0_3" to="A0toA1" fromLane="0" toLane="0" dir="s" state="M"/>
    <connection from=":A0_3" to="A0toA1" fromLane="1" toLane="1" dir="s" state="M"/>
    <connection from=":A0_5" to="A0toB0" fromLane="0" toLane="1" via=":A0_7_0" dir="s" state="m"/>
    <connection from=":A0_7" to="A0toB0" fromLane="0" toLane="1" dir="s" state="M"/>
    <connection from=":A1_0" to="A1toA0" fromLane="0" toLane="0" dir="s" state="M"/>
    <connection from=":A1_0" to="A1toA0" fromLane="1" toLane="1" dir="s" state="M"/>
    <connection from=":A1_2" to="A1toB1" fromLane="0" toLane="1" via=":A1_6_0" dir="s" state="m"/>
    <connection from=":A1_6" to="A1toB1" fromLane="0" toLane="1" dir="s" state="M"/>
    <connection from=":A1_3" to="A1toB1" fromLane="0" toLane="0" dir="s" state="M"/>
    <connection from=":A1_3" to="A1toB1" fromLane="1" toLane="1" dir="s" state="M"/>
    <connection from=":A1_5" to="A1toA0" fromLane="0" toLane="1" via=":A1_7_0" dir="s" state="m"/>
    <connection from=":A1_7" to="A1toA0" fromLane="0" toLane="1" dir="s" state="M"/>
    <connection from=":B0_0" to="B0toA0" fromLane="0" toLane="0" dir="s" state="M"/>
    <connection from=":B0_0" to="B0toA0" fromLane="1" toLane="1" dir="s" state="M"/>
    <connection from=":B0_2" to="B0toB1" fromLane="0" toLane="1" via=":B0_6_0" dir="s" state="m"/>
    <connection from=":B0_6" to="B0toB1" fromLane="0" toLane="1" dir="s" state="M"/>
    <connection from=":B0_3" to="B0toB1" fromLane="0" toLane="0" dir="s" state="M"/>
    <connection from=":B0_3" to="B0toB1" fromLane="1" toLane="1" dir="s" state="M"/>
    <connection from=":B0_5" to="B0toA0" fromLane="0" toLane="1" via=":B0_7_0" dir="s" state="m"/>
    <connection from=":B0_7" to="B0toA0" fromLane="0" toLane="1" dir="s" state="M"/>
    <connection from=":B1_0" to="B1toA1" fromLane="0" toLane="0" dir="s" state="M"/>
    <connection from=":B1_0" to="B1toA1" fromLane="1" toLane="1" dir="s" state="M"/>
    <connection from=":B1_2" to="B1toB0" fromLane="0" toLane="1" via=":B1_6_0" dir="s" state="m"/>
    <connection from=":B1_6" to="B1toB0" fromLane="0" toLane="1" dir="s" state="M"/>
    <connection from=":B1_3" to="B1toB0" fromLane="0" toLane="0" dir="s" state="M"/>
    <connection from=":B1_3" to="B1toB0" fromLane="1" toLane="1" dir="s" state="M"/>
    <connection from=":B1_5" to="B1toA1" fromLane="0" toLane="1" via=":B1_7_0" dir="s" state="m"/>
    <connection from=":B1_7" to="B1toA1" fromLane="0" toLane="1" dir="s" state="M"/>

</net>
