<routes>

    <flow id="0" from="beg" to="rend" begin="0" end="200" number="10"/>

</routes>
