<?xml version="1.0" encoding="UTF-8"?>

<!-- generated on Fri Apr 23 19:13:04 2021 by Eclipse SUMO polyconvert Version 1.7.0
<configuration xmlns:xsi="http://www.w3.org/2001/XMLSchema-instance" xsi:noNamespaceSchemaLocation="http://sumo.dlr.de/xsd/polyconvertConfiguration.xsd">

    <input>
        <net-file value="map.net.xml"/>
        <osm-files value="map.osm"/>
    </input>

    <output>
        <output-file value="map.poly.xml"/>
    </output>

    <processing>
        <poi-layer-offset value="5"/>
    </processing>

</configuration>
-->

<additional xmlns:xsi="http://www.w3.org/2001/XMLSchema-instance" xsi:noNamespaceSchemaLocation="http://sumo.dlr.de/xsd/additional_file.xsd">
    <location netOffset="-5491.83,-257.90" convBoundary="-5491.83,-256.80,1415.72,1802.20" origBoundary="0.000000,0.000000,139.655348,35.566729" projParameter="+proj=tmerc +lat_0=35.5481849 +lon_0=139.579166 +x_0=0 +y_0=0 +ellps=GRS80 +units=m +no_defs"/>

    <poly id="111673440" type="leisure" color="207,245,201" fill="1" layer="-2.00" shape="745.478486,214.153300 750.770461,218.705979 758.836376,224.070542 768.064749,226.739822 775.417839,227.133305 784.094986,227.139396 791.503498,226.079475 801.171149,222.968562 810.667504,218.481748 820.501668,210.711038 825.284850,203.857659 828.338412,193.918626 828.528292,181.847313 799.849340,78.520789 791.126063,66.543061 782.316219,61.599560 772.071934,59.240216 761.092246,58.245064 753.348577,58.639071 745.386211,60.586243 735.019048,65.394276 727.072742,70.337147 721.863245,77.423277 716.634481,86.151469 715.136201,89.312525 713.635733,95.624583 713.641433,100.473136 734.940852,177.598755 745.478486,214.153300"/>
    <poly id="115244524" type="building" color="255,230,230" fill="1" layer="-1.00" shape="784.814283,468.080721 780.094102,450.014608 777.164987,450.778113 773.466577,436.640381 775.525118,436.109261 771.464991,420.595486 768.563076,421.347918 765.714632,410.483835 768.353565,409.797789 764.076376,393.473924 726.641594,403.189273 730.900767,419.435442 734.274240,418.561280 737.149843,429.536323 733.721965,430.421540 737.935894,446.501255 740.275556,445.892657 744.064427,460.396576 741.634085,461.027300 746.092091,478.105747 784.814283,468.080721"/>
    <poly id="115244539" type="building" color="255,230,230" fill="1" layer="-1.00" shape="816.649783,362.522324 813.376307,350.137901 726.526689,372.877426 729.999223,386.016422 733.164140,385.186495 735.027020,392.210981 742.109532,390.363041 740.246673,383.316364 757.086941,378.912284 760.134404,390.453302 775.115618,386.536139 772.077217,375.028407 790.413834,370.226015 792.240483,377.139537 797.509307,375.767454 795.483745,368.066041 816.649783,362.522324"/>
    <poly id="115244541" type="amenity" color="237,199,199" fill="1" layer="-1.00" shape="785.615354,592.568148 767.723129,559.026242 741.139054,481.796954 709.009050,373.475480 694.532770,329.085113 685.203693,301.707091 682.226700,292.973204 680.426490,287.013901 619.927722,120.435159 660.649064,106.094979 671.743297,98.702208 700.326895,66.912382 770.467591,19.640759 779.716243,6.632720 792.726871,-4.996874 798.291009,-13.380837 802.748387,-20.966731 807.341398,-28.008868 813.305387,-37.612998 821.592132,-49.356832 836.872186,-64.457517 880.133900,-104.679707 906.277694,-133.585887 913.892699,-143.987612 918.652004,-155.112559 927.968131,-185.761562 934.303550,-207.181597 962.840456,-221.895288 985.777701,-229.567576 987.836698,-230.498070 1027.910059,-248.520607 1078.969566,-248.949201 1135.593257,-232.730767 1189.372136,-147.203167 1254.549139,-75.701904 1318.624724,-23.750523 1381.878277,11.436026 1415.722704,74.781745 1405.023010,98.805424 1378.060322,153.782968 1364.134160,164.401359 1328.398026,156.052698 1298.220600,158.803484 1266.191064,164.781639 1245.758718,170.313749 1231.341147,171.501157 1223.679825,171.007212 1192.034740,160.132494 1176.819288,173.424126 1165.117119,180.971150 1155.979128,166.596216 1149.974748,157.038886 1152.492680,148.508642 1126.795526,137.549820 1125.658570,142.364242 1157.551552,198.018656 1150.927212,205.258817 1134.895806,218.627581 1140.266334,227.019447 1158.357008,224.414455 1174.514575,212.122050 1178.718627,216.219273 1201.012378,255.357205 1187.823857,298.551588 1143.809726,327.133009 1078.425212,368.003355 1030.666250,385.409833 960.889839,369.737286 913.760824,406.727666 883.242840,430.682315 921.436021,501.307677 960.848695,539.680675 968.713282,547.042401 966.018153,550.246933 961.436487,554.370994 966.670221,563.805600 938.824588,591.523231 921.112048,598.966397 891.413312,581.192987 868.760315,574.697299 863.041024,584.933994 857.084877,596.768217 835.605972,596.752978 785.615354,592.568148"/>
    <poly id="115244548" type="amenity" color="237,199,199" fill="1" layer="-1.00" shape="784.394743,342.528458 775.124521,309.214513 718.644719,324.796950 727.915143,358.099741 784.394743,342.528458"/>
    <poly id="115244548#1" type="building" color="255,230,230" fill="1" layer="-1.00" shape="784.394743,342.528458 775.124521,309.214513 718.644719,324.796950 727.915143,358.099741 784.394743,342.528458"/>
    <poly id="124947232" type="building" color="255,230,230" fill="1" layer="-1.00" shape="700.709146,601.185247 673.587955,605.282766 675.607279,622.093217 677.193058,623.370247 682.071263,649.092029 696.234801,646.927192 689.772524,617.520736 692.937248,616.846126 698.733189,626.525057 694.969395,628.175618 696.399685,631.405279 698.884823,630.131065 706.860337,647.689024 714.005655,659.543539 724.408686,654.302795 714.621717,634.114026 714.849893,631.939547 711.462676,626.611553 712.442596,625.569295 707.408058,616.190451 706.430478,613.859805 705.150196,603.507200 700.709146,601.185247"/>
    <poly id="159628078" type="amenity" color="237,199,199" fill="1" layer="-1.00" shape="675.310302,237.970109 659.598375,183.515719 659.308954,182.461487 661.721231,181.830728 660.301108,176.881345 657.870657,177.567567 655.229382,168.390118 647.766767,142.577832 655.121686,140.419349 652.571016,131.319630 645.080205,133.300501 642.004611,122.769159 657.440075,118.130931 691.085937,108.368291 696.069627,126.146057 704.948157,123.544867 704.098078,120.326704 708.532732,119.142607 733.234809,205.679215 731.466286,206.321497 735.500455,220.293014 728.596802,225.513988 727.210604,223.992997 722.357048,227.861803 720.981159,224.554512 701.628143,230.266138 697.368829,240.193283 684.152486,235.313397 682.447533,235.822593 675.310302,237.970109"/>
    <poly id="159628078#1" type="building" color="255,230,230" fill="1" layer="-1.00" shape="675.310302,237.970109 659.598375,183.515719 659.308954,182.461487 661.721231,181.830728 660.301108,176.881345 657.870657,177.567567 655.229382,168.390118 647.766767,142.577832 655.121686,140.419349 652.571016,131.319630 645.080205,133.300501 642.004611,122.769159 657.440075,118.130931 691.085937,108.368291 696.069627,126.146057 704.948157,123.544867 704.098078,120.326704 708.532732,119.142607 733.234809,205.679215 731.466286,206.321497 735.500455,220.293014 728.596802,225.513988 727.210604,223.992997 722.357048,227.861803 720.981159,224.554512 701.628143,230.266138 697.368829,240.193283 684.152486,235.313397 682.447533,235.822593 675.310302,237.970109"/>
    <poly id="166434100" type="building" color="255,230,230" fill="1" layer="-1.00" shape="723.012925,275.615489 719.015308,261.244579 753.467476,251.749015 757.465043,266.119940 723.012925,275.615489"/>
    <poly id="166434102" type="building" color="255,230,230" fill="1" layer="-1.00" shape="714.095852,333.913946 710.270850,319.066070 715.476204,317.727180 719.292471,332.086869 714.095852,333.913946"/>
    <poly id="183548470" type="building" color="255,230,230" fill="1" layer="-1.00" shape="615.468025,264.390771 649.765962,254.850322 723.617391,514.548533 681.802704,526.036238 652.816616,420.213527 660.960298,417.800404 636.174685,333.926731 629.443514,312.586274 615.468025,264.390771"/>
    <poly id="183548470#1" type="shop" color="237,199,255" fill="1" layer="-1.00" shape="615.468025,264.390771 649.765962,254.850322 723.617391,514.548533 681.802704,526.036238 652.816616,420.213527 660.960298,417.800404 636.174685,333.926731 629.443514,312.586274 615.468025,264.390771"/>
    <poly id="184637498" type="building" color="255,230,230" fill="1" layer="-1.00" shape="601.603000,280.014273 600.517255,276.651723 593.389061,278.921357 598.127028,284.882644 600.240094,284.207285 602.088129,286.593988 603.448470,286.162207 604.868963,290.590114 613.103844,300.825402 617.131788,297.588392 610.572194,277.157864 601.603000,280.014273"/>
    <poly id="184637499" type="building" color="255,230,230" fill="1" layer="-1.00" shape="582.357145,315.106006 588.402498,318.483023 594.847832,307.026192 588.802465,303.660266 582.357145,315.106006"/>
    <poly id="184637501" type="building" color="255,230,230" fill="1" layer="-1.00" shape="566.976288,306.630015 564.815744,310.478544 572.084686,314.533179 574.254298,310.684658 566.976288,306.630015"/>
    <poly id="184637503" type="building" color="255,230,230" fill="1" layer="-1.00" shape="593.408556,343.483651 599.892623,341.690667 598.743938,337.562513 592.250802,339.355492 593.408556,343.483651"/>
    <poly id="184637505" type="building" color="255,230,230" fill="1" layer="-1.00" shape="557.630023,277.243906 564.475031,264.700007 558.511130,261.478393 551.675194,274.022303 557.630023,277.243906"/>
    <poly id="184637506" type="building" color="255,230,230" fill="1" layer="-1.00" shape="598.054653,244.740592 595.901270,238.037695 582.651482,242.255903 584.813941,248.958802 598.054653,244.740592"/>
    <poly id="184637507" type="building" color="255,230,230" fill="1" layer="-1.00" shape="580.389959,354.625352 585.976226,353.075839 582.919029,342.167293 577.341823,343.716814 580.389959,354.625352"/>
    <poly id="184637508" type="building" color="255,230,230" fill="1" layer="-1.00" shape="596.856519,299.849043 603.183991,288.414328 598.470923,285.837056 592.143455,297.271774 596.856519,299.849043"/>
    <poly id="184637510" type="building" color="255,230,230" fill="1" layer="-1.00" shape="583.217107,330.495470 591.496871,328.060185 588.665432,318.494297 579.426736,317.733549 583.217107,330.495470"/>
    <poly id="184637511" type="building" color="255,230,230" fill="1" layer="-1.00" shape="570.774451,307.941811 574.671762,310.119093 580.563321,299.660433 576.656940,297.483143 570.774451,307.941811"/>
    <poly id="184637513" type="building" color="255,230,230" fill="1" layer="-1.00" shape="586.085376,352.565539 590.365762,351.381278 587.453293,340.983204 583.172903,342.167466 586.085376,352.565539"/>
    <poly id="184637515" type="building" color="255,230,230" fill="1" layer="-1.00" shape="562.923371,279.854836 566.739176,281.910013 572.912408,270.586123 569.105674,268.519855 562.923371,279.854836"/>
    <poly id="184637517" type="building" color="255,230,230" fill="1" layer="-1.00" shape="591.436603,296.727633 597.718674,285.381644 595.363485,282.118086 591.883202,280.007650 584.847376,293.117248 591.436603,296.727633"/>
    <poly id="184637518" type="amenity" color="237,199,199" fill="1" layer="-1.00" shape="572.026203,333.905152 569.249003,324.550114 564.886945,325.823090 567.664141,335.189222 572.026203,333.905152"/>
    <poly id="184637518#1" type="building" color="255,230,230" fill="1" layer="-1.00" shape="572.026203,333.905152 569.249003,324.550114 564.886945,325.823090 567.664141,335.189222 572.026203,333.905152"/>
    <poly id="184637519" type="building" color="255,230,230" fill="1" layer="-1.00" shape="592.256117,238.345875 595.647915,237.271962 593.702632,231.212723 590.310832,232.286636 592.256117,238.345875"/>
    <poly id="184637520" type="building" color="255,230,230" fill="1" layer="-1.00" shape="601.408140,259.954234 599.082862,252.707560 587.447374,256.405393 589.772654,263.663158 601.408140,259.954234"/>
    <poly id="184637521" type="building" color="255,230,230" fill="1" layer="-1.00" shape="562.116538,279.665673 568.071880,268.752150 564.491728,266.819179 558.545457,277.732710 562.116538,279.665673"/>
    <poly id="184637522" type="building" color="255,230,230" fill="1" layer="-1.00" shape="599.324448,337.230056 600.328031,341.402492 605.271422,338.587713 604.493575,335.791221 599.324448,337.230056"/>
    <poly id="184637523" type="building" color="255,230,230" fill="1" layer="-1.00" shape="586.949067,255.850300 600.380215,251.576747 598.362546,245.306651 584.931389,249.580207 586.949067,255.850300"/>
    <poly id="184637524" type="building" color="255,230,230" fill="1" layer="-1.00" shape="570.112737,307.686175 576.013382,297.194234 572.723326,295.350216 566.813617,305.842154 570.112737,307.686175"/>
    <poly id="184637525" type="building" color="255,230,230" fill="1" layer="-1.00" shape="601.306635,275.842321 602.211411,278.661088 610.083260,276.158973 609.178486,273.340204 601.306635,275.842321"/>
    <poly id="184637527" type="building" color="255,230,230" fill="1" layer="-1.00" shape="584.557580,292.606677 589.713959,283.290317 581.565791,278.813457 576.409418,288.129821 584.557580,292.606677"/>
    <poly id="184637528" type="building" color="255,230,230" fill="1" layer="-1.00" shape="564.842317,324.780122 570.365184,323.152891 568.926846,318.281174 562.852141,318.066249 564.842317,324.780122"/>
    <poly id="184637530" type="building" color="255,230,230" fill="1" layer="-1.00" shape="577.407839,259.882423 582.916326,266.132697 589.310185,263.740509 583.897864,249.413077 574.746919,252.846334 577.407839,259.882423"/>
    <poly id="184637531" type="building" color="255,230,230" fill="1" layer="-1.00" shape="551.394628,273.267648 558.103460,260.967743 551.224125,257.246235 545.277871,268.148680 545.874853,270.279339 551.394628,273.267648"/>
    <poly id="184637532" type="building" color="255,230,230" fill="1" layer="-1.00" shape="592.358736,327.317402 601.046600,324.760358 603.747434,313.101270 596.080271,308.003399 589.762479,318.572709 592.358736,327.317402"/>
    <poly id="184637534" type="building" color="255,230,230" fill="1" layer="-1.00" shape="580.506177,317.035292 588.413039,302.994296 581.488512,299.128498 572.192472,316.031088 572.636263,316.752570 580.506177,317.035292"/>
    <poly id="184637535" type="building" color="255,230,230" fill="1" layer="-1.00" shape="566.974587,282.398356 570.600051,284.353550 572.740135,283.944484 578.504854,273.363691 573.411077,270.608652 566.974587,282.398356"/>
    <poly id="184637538" type="building" color="255,230,230" fill="1" layer="-1.00" shape="610.562872,343.905870 605.797273,338.632452 595.483971,344.816475 597.721108,348.324046 601.426802,352.243136 610.562872,343.905870"/>
    <poly id="184637540" type="building" color="255,230,230" fill="1" layer="-1.00" shape="579.909293,354.802546 576.834031,343.783040 572.163690,345.077994 571.273529,347.440642 573.806124,356.484853 579.909293,354.802546"/>
    <poly id="184637542" type="building" color="255,230,230" fill="1" layer="-1.00" shape="612.813603,300.969440 603.400872,289.479604 597.599934,299.960501 597.753097,301.391871 606.018842,306.257154 612.813603,300.969440"/>
    <poly id="184637543" type="building" color="255,230,230" fill="1" layer="-1.00" shape="562.961290,317.555949 571.248592,317.384048 572.328860,315.465332 564.769958,311.144217 563.045066,314.349527 562.961290,317.555949"/>
    <poly id="184637546" type="building" color="255,230,230" fill="1" layer="-1.00" shape="572.986436,255.030870 569.366678,258.012990 565.517494,265.055756 578.895465,272.287734 580.974391,268.483534 582.888604,266.898239 572.986436,255.030870"/>
    <poly id="184637548" type="building" color="255,230,230" fill="1" layer="-1.00" shape="595.048109,345.770355 594.460196,343.661889 593.036419,344.060342 591.824400,339.732435 588.423665,340.673202 590.223600,347.109575 595.048109,345.770355"/>
    <poly id="184637549" type="building" color="255,230,230" fill="1" layer="-1.00" shape="587.852838,233.505422 587.092816,231.141653 579.719726,233.488797 582.271211,241.456799 591.639477,238.467501 589.838947,232.874354 587.852838,233.505422"/>
    <poly id="184637550" type="building" color="255,230,230" fill="1" layer="-1.00" shape="583.771492,248.580860 578.967065,233.632521 574.042602,235.204678 577.480797,245.913766 578.369560,245.625897 579.735799,249.865146 583.771492,248.580860"/>
    <poly id="184637551" type="building" color="255,230,230" fill="1" layer="-1.00" shape="571.117326,323.763631 569.747948,324.162124 572.615605,333.827887 582.654701,330.872320 578.674369,317.455661 575.391482,318.418703 575.056781,317.275682 569.660877,318.858616 571.117326,323.763631"/>
    <poly id="184637552" type="building" color="255,230,230" fill="1" layer="-1.00" shape="589.523813,269.587762 587.174799,270.562531 586.086112,271.515967 585.250915,273.035425 582.146190,278.647425 589.279243,282.557746 591.920981,277.788659 607.229077,273.349968 604.822877,265.115776 589.523813,269.587762"/>
    <poly id="184637554" type="building" color="255,230,230" fill="1" layer="-1.00" shape="645.137498,327.098313 660.744684,322.748679 656.240399,306.690995 640.624128,311.029535 645.137498,327.098313"/>
    <poly id="184637554#1" type="shop" color="237,199,255" fill="1" layer="-1.00" shape="645.137498,327.098313 660.744684,322.748679 656.240399,306.690995 640.624128,311.029535 645.137498,327.098313"/>
    <poly id="184638891" type="building" color="255,230,230" fill="1" layer="-1.00" shape="580.572521,366.164362 582.631097,365.588817 583.001957,366.887194 583.898568,368.374544 584.858926,369.451421 585.982427,370.617168 587.269336,371.483460 588.674287,372.094646 590.142941,372.361928 591.720510,372.462858 593.107751,372.452707 594.730874,372.231911 596.191103,371.556106 597.488136,370.869095 598.848993,369.660658 600.491673,367.354001 599.005241,366.565237 600.203598,364.324847 586.735076,357.148250 585.722044,353.530564 574.558586,356.618505 576.458015,363.421081 579.568540,362.568873 580.572521,366.164362"/>
    <poly id="184638892" type="building" color="255,230,230" fill="1" layer="-1.00" shape="542.055510,327.150146 539.920704,319.759380 529.067193,320.329004 531.880450,330.061287 542.055510,327.150146"/>
    <poly id="184638893" type="building" color="255,230,230" fill="1" layer="-1.00" shape="594.498555,353.902676 598.953081,349.978053 597.739045,348.612530 593.284519,352.537154 594.498555,353.902676"/>
    <poly id="184638894" type="building" color="255,230,230" fill="1" layer="-1.00" shape="606.846553,355.553169 609.116066,351.471728 605.209699,349.316615 601.707543,352.731512 606.846553,355.553169"/>
    <poly id="184638895" type="building" color="255,230,230" fill="1" layer="-1.00" shape="568.174000,291.974225 561.222262,288.097329 553.224647,302.304713 547.414920,299.061021 541.850192,308.954074 540.396102,313.956973 540.746454,318.783571 541.669266,321.768771 548.770243,319.454697 551.466762,314.075406 553.442612,315.175156 554.377626,313.522621 555.610265,314.211350 568.174000,291.974225"/>
    <poly id="184638896" type="building" color="255,230,230" fill="1" layer="-1.00" shape="551.784691,326.613063 558.840062,324.698390 556.777879,317.196718 549.496408,318.256919 551.784691,326.613063"/>
    <poly id="184638898" type="building" color="255,230,230" fill="1" layer="-1.00" shape="549.172448,328.042562 550.432999,327.677277 548.388651,320.608327 541.795716,322.490036 543.342549,327.838911 535.217011,330.163393 538.961970,343.124976 552.410812,339.272975 549.172448,328.042562"/>
    <poly id="184638899" type="building" color="255,230,230" fill="1" layer="-1.00" shape="601.753794,364.680947 604.086937,360.355456 596.428194,356.267244 594.104113,360.603838 601.753794,364.680947"/>
    <poly id="184638900" type="building" color="255,230,230" fill="1" layer="-1.00" shape="609.089085,351.149952 611.068095,347.600878 611.268863,345.703756 610.617015,344.283140 605.373017,349.150301 609.089085,351.149952"/>
    <poly id="184638901" type="building" color="255,230,230" fill="1" layer="-1.00" shape="604.214184,359.900645 606.556336,355.663922 601.163551,352.697855 598.980092,350.255448 594.325906,354.457313 604.214184,359.900645"/>
    <poly id="184638902" type="building" color="255,230,230" fill="1" layer="-1.00" shape="590.422634,347.753225 591.798462,351.193637 593.003370,352.647914 597.584984,348.501474 596.053765,346.902739 595.583095,345.715244 590.422634,347.753225"/>
    <poly id="184638903" type="building" color="255,230,230" fill="1" layer="-1.00" shape="587.505966,356.849207 593.714304,360.503716 596.319497,356.111838 591.887559,353.501475 591.209037,351.304187 586.257474,352.820843 587.505966,356.849207"/>
    <poly id="184638905" type="building" color="255,230,230" fill="1" layer="-1.00" shape="530.375328,343.529702 532.831458,345.018099 538.254519,343.468446 534.799026,331.505616 531.362004,332.479665 531.072536,331.480913 527.218346,332.587823 527.507815,333.586576 530.375328,343.529702"/>
    <poly id="184638906" type="building" color="255,230,230" fill="1" layer="-1.00" shape="556.555046,338.310508 560.799190,337.092923 560.310734,335.383950 561.589417,335.018678 558.776202,325.275291 551.376154,327.389443 554.505968,338.242551 556.383188,337.700162 556.555046,338.310508"/>
    <poly id="184643387" type="building" color="255,230,230" fill="1" layer="-1.00" shape="571.481215,241.815607 565.716707,238.693980 558.794215,245.124436 552.294181,257.025058 565.717487,264.290331 572.217541,252.378624 572.797611,252.700775 575.021792,248.630390 572.012652,246.997371 572.802468,245.544451 571.481215,241.815607"/>
    <poly id="184643389" type="building" color="255,230,230" fill="1" layer="-1.00" shape="547.289985,296.098549 554.252992,283.321725 548.008129,279.944596 541.036061,292.721420 547.289985,296.098549"/>
    <poly id="184643390" type="building" color="255,230,230" fill="1" layer="-1.00" shape="540.025624,379.229092 547.126622,376.815161 545.642579,372.487076 538.550652,374.889919 540.025624,379.229092"/>
    <poly id="184643391" type="building" color="255,230,230" fill="1" layer="-1.00" shape="545.287985,360.526337 548.942664,359.463680 547.142462,353.382358 543.487781,354.445016 545.287985,360.526337"/>
    <poly id="184643395" type="building" color="255,230,230" fill="1" layer="-1.00" shape="536.778500,367.543778 537.529314,370.118344 546.561731,367.461625 545.801844,364.898147 536.778500,367.543778"/>
    <poly id="184643397" type="building" color="255,230,230" fill="1" layer="-1.00" shape="538.136518,370.529272 539.349099,374.058327 545.987578,371.810509 544.774999,368.281453 538.136518,370.529272"/>
    <poly id="184643399" type="building" color="255,230,230" fill="1" layer="-1.00" shape="550.712067,357.456666 549.355123,352.884575 547.677409,353.382719 549.025286,357.954804 550.712067,357.456666"/>
    <poly id="184643400" type="building" color="255,230,230" fill="1" layer="-1.00" shape="553.437929,362.295966 557.509775,361.100454 554.425008,350.691178 550.362224,351.886698 553.437929,362.295966"/>
    <poly id="184643401" type="building" color="255,230,230" fill="1" layer="-1.00" shape="553.942551,299.919757 560.524271,287.852764 554.351918,284.520061 547.770204,296.587058 553.942551,299.919757"/>
    <poly id="184643402" type="building" color="255,230,230" fill="1" layer="-1.00" shape="547.308672,375.761251 553.702128,373.835031 551.603273,366.943565 545.209812,368.869787 547.308672,375.761251"/>
    <poly id="184643405" type="building" color="255,230,230" fill="1" layer="-1.00" shape="553.707654,365.669054 551.835086,359.343590 545.550475,361.192220 547.423047,367.517682 553.707654,365.669054"/>
    <poly id="184643407" type="building" color="255,230,230" fill="1" layer="-1.00" shape="558.577836,363.808377 568.807193,361.008254 565.469693,348.934541 563.421317,347.834740 554.815223,350.192163 558.577836,363.808377"/>
    <poly id="184643409" type="building" color="255,230,230" fill="1" layer="-1.00" shape="540.039263,318.738713 539.599567,311.948226 539.654238,311.548840 524.314359,309.474812 524.035410,319.781955 540.039263,318.738713"/>
    <poly id="184643411" type="building" color="255,230,230" fill="1" layer="-1.00" shape="574.550978,247.642608 577.153782,246.801150 573.471154,235.537142 569.136170,236.932181 573.691510,244.846065 572.938827,245.023075 574.550978,247.642608"/>
    <poly id="184643412" type="building" color="255,230,230" fill="1" layer="-1.00" shape="551.618953,383.974527 547.379594,391.560697 549.762724,393.714755 560.148919,400.256788 577.449540,372.009348 572.346911,369.021306 551.618953,383.974527"/>
    <poly id="184643414" type="building" color="255,230,230" fill="1" layer="-1.00" shape="528.284337,298.016267 540.431124,302.373732 544.425538,295.042581 540.020598,292.665258 547.346712,279.245159 543.023338,276.912271 539.169093,278.063557 528.284337,298.016267"/>
    <poly id="184643415" type="building" color="255,230,230" fill="1" layer="-1.00" shape="544.471470,388.097066 558.368837,377.876800 555.433850,373.913869 540.560368,379.529021 541.039279,381.948072 542.144261,383.690746 541.536481,384.134139 544.471470,388.097066"/>
    <poly id="184643415#1" type="shop" color="237,199,255" fill="1" layer="-1.00" shape="544.471470,388.097066 558.368837,377.876800 555.433850,373.913869 540.560368,379.529021 541.039279,381.948072 542.144261,383.690746 541.536481,384.134139 544.471470,388.097066"/>
    <poly id="184643417" type="building" color="255,230,230" fill="1" layer="-1.00" shape="556.168718,373.248661 558.614289,376.922789 570.352075,369.197473 570.732613,369.597155 572.129644,368.521880 571.223746,367.356281 569.559361,361.574614 554.079179,365.991063 556.168718,373.248661"/>
    <poly id="184643419" type="amenity" color="237,199,199" fill="1" layer="-1.00" shape="545.684402,364.265648 542.780555,354.455633 538.618017,355.684377 536.967579,356.071591 535.715509,357.313395 535.233713,359.165949 535.549527,361.429559 537.123565,366.767356 545.684402,364.265648"/>
    <poly id="184643419#1" type="building" color="255,230,230" fill="1" layer="-1.00" shape="545.684402,364.265648 542.780555,354.455633 538.618017,355.684377 536.967579,356.071591 535.715509,357.313395 535.233713,359.165949 535.549527,361.429559 537.123565,366.767356 545.684402,364.265648"/>
    <poly id="184643421" type="building" color="255,230,230" fill="1" layer="-1.00" shape="532.510557,309.957423 532.973839,308.670706 538.766240,310.716109 539.138681,309.684518 540.208326,310.062473 542.043325,304.915594 527.303970,299.702059 524.097402,308.509394 532.510557,309.957423"/>
    <poly id="184656989" type="building" color="255,230,230" fill="1" layer="-1.00" shape="497.751629,331.403037 492.854576,332.764450 494.944039,340.221745 499.841081,338.871428 501.731533,345.629601 505.331767,344.633459 507.375994,351.924301 514.576464,349.920929 510.867927,336.682003 507.612292,337.589613 505.296717,329.311128 497.751629,331.403037"/>
    <poly id="184656990" type="building" color="255,230,230" fill="1" layer="-1.00" shape="548.555639,247.957848 550.979427,243.676786 541.943039,238.600227 539.519262,242.870197 548.555639,247.957848"/>
    <poly id="184656991" type="building" color="255,230,230" fill="1" layer="-1.00" shape="467.873497,348.902191 460.029174,351.071598 463.810124,364.599022 471.663510,362.418530 467.873497,348.902191"/>
    <poly id="184656993" type="building" color="255,230,230" fill="1" layer="-1.00" shape="517.809180,302.203156 520.977714,296.014232 510.327666,290.603766 507.159138,296.792694 517.809180,302.203156"/>
    <poly id="184656995" type="building" color="255,230,230" fill="1" layer="-1.00" shape="504.346747,353.264772 507.085458,352.512145 505.041246,345.199114 502.302525,345.962836 504.346747,353.264772"/>
    <poly id="184656995#1" type="shop" color="237,199,255" fill="1" layer="-1.00" shape="504.346747,353.264772 507.085458,352.512145 505.041246,345.199114 502.302525,345.962836 504.346747,353.264772"/>
    <poly id="184657000" type="building" color="255,230,230" fill="1" layer="-1.00" shape="522.285253,374.013539 518.576759,360.741324 514.813297,361.781731 518.530863,375.053950 522.285253,374.013539"/>
    <poly id="184657001" type="building" color="255,230,230" fill="1" layer="-1.00" shape="511.914002,250.695826 521.717383,234.337175 512.898690,229.094366 503.095319,245.453027 511.914002,250.695826"/>
    <poly id="184657002" type="building" color="255,230,230" fill="1" layer="-1.00" shape="518.576845,333.658229 516.369814,325.779236 505.668841,328.745528 507.875873,336.635613 518.576845,333.658229"/>
    <poly id="184657003" type="building" color="255,230,230" fill="1" layer="-1.00" shape="499.306626,243.486656 507.784707,229.357213 502.319471,226.102686 493.841387,240.243229 499.306626,243.486656"/>
    <poly id="184657004" type="building" color="255,230,230" fill="1" layer="-1.00" shape="494.705010,291.003803 505.771968,296.680812 509.430707,289.604607 498.363743,283.927593 494.705010,291.003803"/>
    <poly id="184657005" type="building" color="255,230,230" fill="1" layer="-1.00" shape="517.235672,373.011584 514.151287,361.969902 501.908697,365.367871 504.993096,376.409548 517.235672,373.011584"/>
    <poly id="184657007" type="building" color="255,230,230" fill="1" layer="-1.00" shape="530.355832,237.937800 537.808959,224.451209 530.494564,220.440952 523.032370,233.938638 530.355832,237.937800"/>
    <poly id="184657008" type="building" color="255,230,230" fill="1" layer="-1.00" shape="516.651306,325.158101 513.856337,315.170648 502.502407,318.325121 505.297387,328.312571 516.651306,325.158101"/>
    <poly id="184657009" type="building" color="255,230,230" fill="1" layer="-1.00" shape="551.596651,242.689741 553.675482,239.018676 544.901946,234.075433 542.823117,237.746500 551.596651,242.689741"/>
    <poly id="184657010" type="building" color="255,230,230" fill="1" layer="-1.00" shape="486.715476,333.947514 482.590805,319.221581 470.012633,322.708129 474.137315,337.445151 486.715476,333.947514"/>