<?xml version='1.0' encoding='UTF-8'?>
<!-- generated on Fri Apr 23 19:13:03 2021 by Eclipse SUMO netconvert Version 1.7.0
<configuration xmlns:xsi="http://www.w3.org/2001/XMLSchema-instance" xsi:noNamespaceSchemaLocation="http://sumo.dlr.de/xsd/netconvertConfiguration.xsd">

    <input>
        <type-files value="/home/yoshida/carla/Co-Simulation/Sumo/util/data/opendrive_netconvert.typ.xml"/>
        <opendrive-files value="/home/yoshida/carla/Import//auto_import/hiyoshi/map.xodr"/>
    </input>

    <output>
        <output-file value="/tmp/tmpv0q0uwmb/map.net.xml"/>
        <output.original-names value="true"/>
    </output>

    <processing>
        <geometry.remove value="true"/>
        <geometry.min-radius.fix value="true"/>
        <geometry.max-grade.fix value="false"/>
    </processing>

    <tls_building>
        <tls.discard-loaded value="true"/>
        <tls.left-green.time value="0"/>
    </tls_building>

    <junctions>
        <rectangular-lane-cut value="true"/>
    </junctions>

    <formats>
        <opendrive.import-all-lanes value="true"/>
        <opendrive.curve-resolution value="1"/>
    </formats>

    <report>
        <aggregate-warnings value="5"/>
    </report>

</configuration>
-->
<net xmlns:xsi="http://www.w3.org/2001/XMLSchema-instance" version="1.6" junctionCornerDetail="5" rectangularLaneCut="true" limitTurnSpeed="5.50" xsi:noNamespaceSchemaLocation="http://sumo.dlr.de/xsd/net_file.xsd">
  <location netOffset="-5491.83,-257.90" convBoundary="0.00,0.00,955.45,779.73" origBoundary="0.000000,0.000000,0.000000,0.000000" projParameter="+proj=tmerc +lat_0=35.5481849 +lon_0=139.579166 +x_0=0 +y_0=0 +ellps=GRS80 +units=m +no_defs"/>
  <type id="bidirectional" priority="1" speed="1.39" disallow="pedestrian tram rail_urban rail rail_electric rail_fast ship" width="3.65"/>
  <type id="biking" priority="-1" speed="5.56" allow="bicycle" width="1.50"/>
  <type id="border" priority="0" speed="1.39" disallow="all" discard="1" width="0.10"/>
  <type id="driving" priority="1" speed="13.89" disallow="pedestrian tram rail_urban rail rail_electric rail_fast ship" width="3.65"/>
  <type id="entry" priority="1" speed="22.22" disallow="pedestrian tram rail_urban rail rail_electric rail_fast ship" width="3.65"/>
  <type id="exit" priority="1" speed="22.22" disallow="pedestrian tram rail_urban rail rail_electric rail_fast ship" width="3.65"/>
  <type id="median" priority="0" speed="1.39" disallow="all" discard="1" width="0.10"/>
  <type id="mwyEntry" priority="1" speed="22.22" allow="private emergency authority army vip passenger hov taxi bus coach delivery truck trailer motorcycle evehicle custom1 custom2" width="3.65"/>
  <type id="mwyExit" priority="1" speed="22.22" allow="private emergency authority army vip passenger hov taxi bus coach delivery truck trailer motorcycle evehicle custom1 custom2" width="3.65"/>
  <type id="none" priority="0" speed="1.39" disallow="all" discard="1" width="1.00"/>
  <type id="offRamp" priority="1" speed="22.22" allow="private emergency authority army vip passenger hov taxi bus coach delivery truck trailer motorcycle evehicle custom1 custom2" width="3.65"/>
  <type id="onRamp" priority="1" speed="22.22" allow="private emergency authority army vip passenger hov taxi bus coach delivery truck trailer motorcycle evehicle custom1 custom2" width="3.65"/>
  <type id="parking" priority="1" speed="1.39" disallow="pedestrian tram rail_urban rail rail_electric rail_fast ship" width="2.50"/>
  <type id="rail" priority="3" speed="33.33" allow="rail_urban rail rail_electric rail_fast" width="3.65"/>
  <type id="restricted" priority="0" speed="13.89" disallow="all" width="3.65"/>
  <type id="roadWorks" priority="0" speed="1.39" allow="authority" width="3.65"/>
  <type id="shoulder" priority="0" speed="1.39" disallow="all" discard="1" width="1.00"/>
  <type id="sidewalk" priority="-2" speed="2.78" allow="pedestrian" width="2.50"/>
  <type id="special1" priority="1" speed="22.22" allow="custom1" discard="1" width="3.65"/>
  <type id="special2" priority="1" speed="22.22" allow="custom2" discard="1" width="3.65"/>
  <type id="special3" priority="1" speed="22.22" allow="custom1 custom2" discard="1" width="3.65"/>
  <type id="stop" priority="1" speed="13.89" disallow="pedestrian tram rail_urban rail rail_electric rail_fast ship" width="3.65"/>
  <type id="tram" priority="2" speed="13.89" allow="tram" width="3.65"/>
  <edge id=":1001_0" function="internal">
    <lane id=":1001_0_0" index="0" disallow="pedestrian tram rail_urban rail rail_electric rail_fast ship" speed="4.08" length="5.84" width="4.00" shape="551.26,190.22,183.80 550.70,191.94,183.80 549.87,192.69,183.80 548.78,192.48,183.80 547.41,191.30,183.80">
      <param key="origId" value="1002_-1"/>
    </lane>
  </edge>
  <edge id=":1003_0" function="internal">
    <lane id=":1003_0_0" index="0" disallow="pedestrian tram rail_urban rail rail_electric rail_fast ship" speed="4.09" length="5.86" width="4.00" shape="476.77,479.25,181.86 478.42,480.00,181.86 479.07,480.90,181.86 478.74,481.97,181.86 477.42,483.21,181.86">
      <param key="origId" value="1004_-1"/>
    </lane>
  </edge>
  <edge id=":1005_0" function="internal">
    <lane id=":1005_0_0" index="0" disallow="pedestrian tram rail_urban rail rail_electric rail_fast ship" speed="4.08" length="5.84" width="4.00" shape="609.61,116.77,183.31 610.03,115.02,183.31 610.79,114.20,183.31 611.90,114.32,183.31 613.36,115.38,183.31">
      <param key="origId" value="1006_-1"/>
    </lane>
  </edge>
  <edge id=":188_0" function="internal">
    <lane id=":188_0_0" index="0" disallow="pedestrian tram rail_urban rail rail_electric rail_fast ship" speed="8.62" length="11.60" width="4.00" shape="504.88,212.63,183.55 501.37,212.44,183.50 498.48,212.96,183.45 496.21,214.20,183.40 494.55,216.15,183.36">
      <param key="origId" value="300_-1"/>
    </lane>
  </edge>
  <edge id=":188_1" function="internal">
    <lane id=":188_1_0" index="0" disallow="pedestrian tram rail_urban rail rail_electric rail_fast ship" speed="8.45" length="15.68" width="4.00" shape="504.88,212.63,183.55 500.86,211.42,183.63 498.19,209.15,183.70 496.88,205.81,183.77 496.92,201.42,183.85">
      <param key="origId" value="299_-1"/>
    </lane>
  </edge>
  <edge id=":188_2" function="internal">
    <lane id=":188_2_0" index="0" disallow="pedestrian tram rail_urban rail rail_electric rail_fast ship" speed="6.66" length="9.24" width="4.00" shape="500.87,201.99,183.85 500.84,204.62,183.77 501.59,206.61,183.70 503.13,207.96,183.63 505.45,208.68,183.55">
      <param key="origId" value="304_-1"/>
    </lane>
  </edge>
  <edge id=":188_3" function="internal">
    <lane id=":188_3_0" index="0" disallow="pedestrian tram rail_urban rail rail_electric rail_fast ship" speed="13.89" length="15.61" width="4.00" shape="500.87,201.99,183.85 499.94,205.68,183.73 498.39,209.30,183.61 496.50,212.81,183.48 494.55,216.15,183.36">
      <param key="origId" value="303_-1"/>
    </lane>
  </edge>
  <edge id=":188_4" function="internal">
    <lane id=":188_4_0" index="0" disallow="pedestrian tram rail_urban rail rail_electric rail_fast ship" speed="13.89" length="14.11" width="4.00" shape="491.09,214.15,183.34 492.96,211.03,183.47 494.68,208.02,183.60 496.06,204.89,183.72 496.92,201.42,183.85">
      <param key="origId" value="302_-1"/>
    </lane>
  </edge>
  <edge id=":188_5" function="internal">
    <lane id=":188_5_0" index="0" disallow="pedestrian tram rail_urban rail rail_electric rail_fast ship" speed="10.13" length="6.54" width="4.00" shape="491.09,214.15,183.34 493.51,211.19,183.39 495.85,209.80,183.43">
      <param key="origId" value="301_-1"/>
    </lane>
  </edge>
  <edge id=":188_6" function="internal">
    <lane id=":188_6_0" index="0" disallow="pedestrian tram rail_urban rail rail_electric rail_fast ship" speed="10.13" length="9.84" width="4.00" shape="495.85,209.80,183.43 496.70,209.29,183.44 500.69,208.45,183.49 505.45,208.68,183.55">
      <param key="origId" value="301_-1"/>
    </lane>
  </edge>
  <edge id=":189_0" function="internal">
    <lane id=":189_0_0" index="0" disallow="pedestrian tram rail_urban rail rail_electric rail_fast ship" speed="13.74" length="19.48" width="4.00" shape="393.03,188.22,183.73 387.74,185.63,183.76 382.88,184.14,183.78 378.45,183.75,183.80 374.45,184.48,183.82">
      <param key="origId" value="310_-1"/>
    </lane>
  </edge>
  <edge id=":189_1" function="internal">
    <lane id=":189_1_0" index="0" disallow="pedestrian tram rail_urban rail rail_electric rail_fast ship" speed="13.89" length="22.66" width="4.00" shape="393.03,188.22,183.73 388.93,185.42,183.79 383.98,181.33,183.87 379.41,176.88,183.95 376.46,172.97,184.01">
      <param key="origId" value="309_-1"/>
    </lane>
  </edge>
  <edge id=":189_2" function="internal">
    <lane id=":189_2_0" index="0" disallow="pedestrian tram rail_urban rail rail_electric rail_fast ship" speed="13.89" length="20.42" width="4.00" shape="380.01,171.13,184.01 382.72,174.78,183.95 386.75,178.67,183.87 391.16,182.20,183.79 395.01,184.75,183.73">
      <param key="origId" value="306_-1"/>
    </lane>
  </edge>
  <edge id=":189_3" function="internal">
    <lane id=":189_3_0" index="0" disallow="pedestrian tram rail_urban rail rail_electric rail_fast ship" speed="8.37" length="5.26" width="4.00" shape="380.01,171.13,184.01 381.56,175.62,183.96 381.51,176.13,183.95">
      <param key="origId" value="305_-1"/>
    </lane>
  </edge>
  <edge id=":189_6" function="internal">
    <lane id=":189_6_0" index="0" disallow="pedestrian tram rail_urban rail rail_electric rail_fast ship" speed="8.37" length="11.87" width="4.00" shape="381.51,176.13,183.95 381.15,179.34,183.91 378.78,182.30,183.87 374.45,184.48,183.82">
      <param key="origId" value="305_-1"/>
    </lane>
  </edge>
  <edge id=":189_4" function="internal">
    <lane id=":189_4_0" index="0" disallow="pedestrian tram rail_urban rail rail_electric rail_fast ship" speed="6.55" length="9.94" width="4.00" shape="373.17,180.69,183.82 375.70,179.42,183.87 377.10,177.71,183.91 377.35,175.56,183.96 376.46,172.97,184.01">
      <param key="origId" value="308_-1"/>
    </lane>
  </edge>
  <edge id=":189_5" function="internal">
    <lane id=":189_5_0" index="0" disallow="pedestrian tram rail_urban rail rail_electric rail_fast ship" speed="13.89" length="22.86" width="4.00" shape="373.17,180.69,183.82 378.01,179.77,183.80 383.26,180.14,183.78 388.93,181.80,183.76 395.01,184.75,183.73">
      <param key="origId" value="307_-1"/>
    </lane>
  </edge>
  <edge id=":190_0" function="internal">
    <lane id=":190_0_0" index="0" disallow="pedestrian tram rail_urban rail rail_electric rail_fast ship" speed="13.89" length="11.87" width="4.00" shape="514.23,258.28,181.39 503.94,252.36,181.32">
      <param key="origId" value="314_-1"/>
    </lane>
  </edge>
  <edge id=":190_1" function="internal">
    <lane id=":190_1_0" index="0" disallow="pedestrian tram rail_urban rail rail_electric rail_fast ship" speed="13.89" length="11.87" width="4.00" shape="505.93,248.89,181.32 516.23,254.81,181.39">
      <param key="origId" value="313_-1"/>
    </lane>
  </edge>
  <edge id=":190_2" function="internal">
    <lane id=":190_2_0" index="0" disallow="pedestrian tram rail_urban rail rail_electric rail_fast ship" speed="6.83" length="9.55" width="4.00" shape="506.19,260.50,181.40 507.09,258.02,181.38 507.02,255.84,181.36 505.97,253.95,181.34 503.94,252.36,181.32">
      <param key="origId" value="312_-1"/>
    </lane>
  </edge>
  <edge id=":190_3" function="internal">
    <lane id=":190_3_0" index="0" disallow="pedestrian tram rail_urban rail rail_electric rail_fast ship" speed="7.68" length="13.04" width="4.00" shape="506.19,260.50,181.40 508.56,256.85,181.40 511.03,254.69,181.39 513.58,254.01,181.39 516.23,254.81,181.39">
      <param key="origId" value="311_-1"/>
    </lane>
  </edge>
  <edge id=":191_0" function="internal">
    <lane id=":191_0_0" index="0" disallow="pedestrian tram rail_urban rail rail_electric rail_fast ship" speed="6.83" length="9.78" width="4.00" shape="645.43,220.50,184.16 644.29,218.17,184.14 642.63,216.77,184.12 640.43,216.30,184.10 637.71,216.75,184.08">
      <param key="origId" value="316_-1"/>
    </lane>
  </edge>
  <edge id=":191_1" function="internal">
    <lane id=":191_1_0" index="0" disallow="pedestrian tram rail_urban rail rail_electric rail_fast ship" speed="13.89" length="16.01" width="4.00" shape="645.43,220.50,184.16 640.59,205.23,183.95">
      <param key="origId" value="315_-1"/>
    </lane>
  </edge>
  <edge id=":191_2" function="internal">
    <lane id=":191_2_0" index="0" disallow="pedestrian tram rail_urban rail rail_electric rail_fast ship" speed="13.89" length="16.05" width="4.00" shape="644.40,204.00,183.95 649.25,219.31,184.16">
      <param key="origId" value="320_-1"/>
    </lane>
  </edge>
  <edge id=":191_3" function="internal">
    <lane id=":191_3_0" index="0" disallow="pedestrian tram rail_urban rail rail_electric rail_fast ship" speed="8.60" length="7.19" width="4.00" shape="644.40,204.00,183.95 645.16,208.44,183.99 644.54,211.05,184.01">
      <param key="origId" value="319_-1"/>
    </lane>
  </edge>
  <edge id=":191_6" function="internal">
    <lane id=":191_6_0" index="0" disallow="pedestrian tram rail_urban rail rail_electric rail_fast ship" speed="8.60" length="9.29" width="4.00" shape="644.54,211.05,184.01 644.30,212.05,184.01 641.81,214.82,184.04 637.71,216.75,184.08">
      <param key="origId" value="319_-1"/>
    </lane>
  </edge>
  <edge id=":191_4" function="internal">
    <lane id=":191_4_0" index="0" disallow="pedestrian tram rail_urban rail rail_electric rail_fast ship" speed="6.85" length="9.96" width="4.00" shape="636.52,212.93,184.07 639.02,211.76,184.04 640.52,210.09,184.01 641.05,207.91,183.99 640.59,205.23,183.95">
      <param key="origId" value="318_-1"/>
    </lane>
  </edge>
  <edge id=":191_5" function="internal">
    <lane id=":191_5_0" index="0" disallow="pedestrian tram rail_urban rail rail_electric rail_fast ship" speed="8.59" length="16.22" width="4.00" shape="636.52,212.93,184.07 640.99,212.20,184.10 644.60,213.01,184.12 647.35,215.38,184.14 649.25,219.31,184.16">
      <param key="origId" value="317_-1"/>
    </lane>
  </edge>
  <edge id=":192_0" function="internal">
    <lane id=":192_0_0" index="0" disallow="pedestrian tram rail_urban rail rail_electric rail_fast ship" speed="7.00" length="10.17" width="4.00" shape="597.19,234.30,183.48 595.96,231.67,183.41 594.26,230.03,183.34 592.10,229.38,183.28 589.48,229.72,183.21">
      <param key="origId" value="326_-1"/>
    </lane>
  </edge>
  <edge id=":192_1" function="internal">
    <lane id=":192_1_0" index="0" disallow="pedestrian tram rail_urban rail rail_electric rail_fast ship" speed="13.89" length="16.52" width="4.00" shape="597.19,234.30,183.48 592.57,218.45,183.90">
      <param key="origId" value="325_-1"/>
    </lane>
  </edge>
  <edge id=":192_2" function="internal">
    <lane id=":192_2_0" index="0" disallow="pedestrian tram rail_urban rail rail_electric rail_fast ship" speed="8.17" length="7.46" width="4.00" shape="597.19,234.30,183.48 597.03,230.61,183.53 598.33,227.08,183.57">
      <param key="origId" value="324_-1"/>
    </lane>
  </edge>
  <edge id=":192_12" function="internal">
    <lane id=":192_12_0" index="0" disallow="pedestrian tram rail_urban rail rail_electric rail_fast ship" speed="8.17" length="8.03" width="4.00" shape="598.33,227.08,183.57 598.43,226.82,183.58 600.97,223.67,183.63 604.22,221.91,183.67">
      <param key="origId" value="324_-1"/>
    </lane>
  </edge>
  <edge id=":192_3" function="internal">
    <lane id=":192_3_0" index="0" disallow="pedestrian tram rail_urban rail rail_electric rail_fast ship" speed="6.63" length="9.72" width="4.00" shape="605.13,225.81,183.67 602.62,226.79,183.62 601.09,228.33,183.58 600.56,230.43,183.53 601.00,233.08,183.48">
      <param key="origId" value="323_-1"/>
    </lane>
  </edge>
  <edge id=":192_4" function="internal">
    <lane id=":192_4_0" index="0" disallow="pedestrian tram rail_urban rail rail_electric rail_fast ship" speed="13.89" length="16.14" width="4.00" shape="605.13,225.81,183.67 589.48,229.72,183.21">
      <param key="origId" value="322_-1"/>
    </lane>
  </edge>
  <edge id=":192_5" function="internal">
    <lane id=":192_5_0" index="0" disallow="pedestrian tram rail_urban rail rail_electric rail_fast ship" speed="8.53" length="15.70" width="4.00" shape="605.13,225.81,183.67 601.34,225.78,183.73 597.53,224.30,183.79 594.38,221.73,183.85 592.57,218.45,183.90">
      <param key="origId" value="321_-1"/>
    </lane>
  </edge>
  <edge id=":192_6" function="internal">
    <lane id=":192_6_0" index="0" disallow="pedestrian tram rail_urban rail rail_electric rail_fast ship" speed="7.01" length="10.18" width="4.00" shape="596.44,217.44,183.90 597.50,219.94,183.84 599.15,221.52,183.79 601.39,222.18,183.74 604.22,221.91,183.67">
      <param key="origId" value="332_-1"/>
    </lane>
  </edge>
  <edge id=":192_7" function="internal">
    <lane id=":192_7_0" index="0" disallow="pedestrian tram rail_urban rail rail_electric rail_fast ship" speed="13.89" length="16.30" width="4.00" shape="596.44,217.44,183.90 601.00,233.08,183.48">
      <param key="origId" value="331_-1"/>
    </lane>
  </edge>
  <edge id=":192_8" function="internal">
    <lane id=":192_8_0" index="0" disallow="pedestrian tram rail_urban rail rail_electric rail_fast ship" speed="8.42" length="6.72" width="4.00" shape="596.44,217.44,183.90 596.49,221.09,183.73 595.41,223.96,183.60">
      <param key="origId" value="330_-1"/>
    </lane>
  </edge>
  <edge id=":192_13" function="internal">
    <lane id=":192_13_0" index="0" disallow="pedestrian tram rail_urban rail rail_electric rail_fast ship" speed="8.42" length="8.50" width="4.00" shape="595.41,223.96,183.60 595.10,224.79,183.56 592.64,227.89,183.38 589.48,229.72,183.21">
      <param key="origId" value="330_-1"/>
    </lane>
  </edge>
  <edge id=":192_9" function="internal">
    <lane id=":192_9_0" index="0" disallow="pedestrian tram rail_urban rail rail_electric rail_fast ship" speed="6.87" length="9.70" width="4.00" shape="588.36,225.88,183.21 590.76,224.79,183.40 592.26,223.19,183.56 592.87,221.07,183.71 592.57,218.45,183.90">
      <param key="origId" value="329_-1"/>
    </lane>
  </edge>
  <edge id=":192_10" function="internal">
    <lane id=":192_10_0" index="0" disallow="pedestrian tram rail_urban rail rail_electric rail_fast ship" speed="13.89" length="16.36" width="4.00" shape="588.36,225.88,183.21 604.22,221.91,183.67">
      <param key="origId" value="328_-1"/>
    </lane>
  </edge>
  <edge id=":192_11" function="internal">
    <lane id=":192_11_0" index="0" disallow="pedestrian tram rail_urban rail rail_electric rail_fast ship" speed="8.53" length="15.69" width="4.00" shape="588.36,225.88,183.21 592.09,225.78,183.28 595.87,227.24,183.35 599.06,229.82,183.42 601.00,233.08,183.48">
      <param key="origId" value="327_-1"/>
    </lane>
  </edge>
  <edge id=":193_0" function="internal">
    <lane id=":193_0_0" index="0" disallow="pedestrian tram rail_urban rail rail_electric rail_fast ship" speed="13.89" length="12.73" width="4.00" shape="567.53,237.16,182.28 564.54,238.77,182.05 562.08,240.42,181.85 559.88,242.38,181.65 557.66,244.94,181.43">
      <param key="origId" value="336_-1"/>
    </lane>
  </edge>
  <edge id=":193_1" function="internal">
    <lane id=":193_1_0" index="0" disallow="pedestrian tram rail_urban rail rail_electric rail_fast ship" speed="9.12" length="6.05" width="4.00" shape="567.53,237.16,182.28 563.91,238.40,182.23 561.69,238.39,182.21">
      <param key="origId" value="335_-1"/>
    </lane>
  </edge>
  <edge id=":193_6" function="internal">
    <lane id=":193_6_0" index="0" disallow="pedestrian tram rail_urban rail rail_electric rail_fast ship" speed="9.12" length="8.56" width="4.00" shape="561.69,238.39,182.21 560.50,238.38,182.20 557.30,237.10,182.15 554.31,234.56,182.11">
      <param key="origId" value="335_-1"/>
    </lane>
  </edge>
  <edge id=":193_2" function="internal">
    <lane id=":193_2_0" index="0" disallow="pedestrian tram rail_urban rail rail_electric rail_fast ship" speed="7.43" length="9.37" width="4.00" shape="557.27,231.87,182.11 559.20,233.51,182.16 561.25,234.35,182.20 563.43,234.37,182.24 565.74,233.59,182.28">
      <param key="origId" value="338_-1"/>
    </lane>
  </edge>
  <edge id=":193_3" function="internal">
    <lane id=":193_3_0" index="0" disallow="pedestrian tram rail_urban rail rail_electric rail_fast ship" speed="8.66" length="14.44" width="4.00" shape="557.27,231.87,182.11 559.43,235.04,181.93 560.22,238.27,181.77 559.63,241.58,181.61 557.66,244.94,181.43">
      <param key="origId" value="337_-1"/>
    </lane>
  </edge>
  <edge id=":193_4" function="internal">
    <lane id=":193_4_0" index="0" disallow="pedestrian tram rail_urban rail rail_electric rail_fast ship" speed="6.90" length="8.76" width="4.00" shape="554.51,242.48,181.43 555.72,240.43,181.61 556.08,238.43,181.77 555.61,236.47,181.93 554.31,234.56,182.11">
      <param key="origId" value="334_-1"/>
    </lane>
  </edge>
  <edge id=":193_5" function="internal">
    <lane id=":193_5_0" index="0" disallow="pedestrian tram rail_urban rail rail_electric rail_fast ship" speed="13.89" length="14.46" width="4.00" shape="554.51,242.48,181.43 556.94,239.74,181.64 559.61,237.40,181.85 562.53,235.37,182.07 565.74,233.59,182.28">
      <param key="origId" value="333_-1"/>
    </lane>
  </edge>
  <edge id=":194_0" function="internal">
    <lane id=":194_0_0" index="0" disallow="pedestrian tram rail_urban rail rail_electric rail_fast ship" speed="6.79" length="9.68" width="4.00" shape="498.53,369.52,181.69 497.44,367.10,181.70 495.83,365.62,181.70 493.71,365.07,181.71 491.09,365.45,181.72">
      <param key="origId" value="341_-1"/>
    </lane>
  </edge>
  <edge id=":194_1" function="internal">
    <lane id=":194_1_0" index="0" disallow="pedestrian tram rail_urban rail rail_electric rail_fast ship" speed="13.89" length="16.02" width="4.00" shape="498.53,369.52,181.69 494.11,354.12,181.68">
      <param key="origId" value="340_-1"/>
    </lane>
  </edge>
  <edge id=":194_2" function="internal">
    <lane id=":194_2_0" index="0" disallow="pedestrian tram rail_urban rail rail_electric rail_fast ship" speed="7.79" length="13.10" width="4.00" shape="498.53,369.52,181.69 497.67,365.21,181.70 497.88,361.89,181.70 499.16,359.56,181.71 501.52,358.21,181.71">
      <param key="origId" value="339_-1"/>
    </lane>
  </edge>
  <edge id=":194_3" function="internal">
    <lane id=":194_3_0" index="0" disallow="pedestrian tram rail_urban rail rail_electric rail_fast ship" speed="13.89" length="12.05" width="4.00" shape="502.65,362.05,181.71 491.09,365.45,181.72">
      <param key="origId" value="343_-1"/>
    </lane>
  </edge>
  <edge id=":194_4" function="internal">
    <lane id=":194_4_0" index="0" disallow="pedestrian tram rail_urban rail rail_electric rail_fast ship" speed="7.75" length="4.66" width="4.00" shape="502.65,362.05,181.71 499.93,362.20,181.71 498.23,361.27,181.70">
      <param key="origId" value="342_-1"/>
    </lane>
  </edge>
  <edge id=":194_7" function="internal">
    <lane id=":194_7_0" index="0" disallow="pedestrian tram rail_urban rail rail_electric rail_fast ship" speed="7.75" length="8.43" width="4.00" shape="498.23,361.27,181.70 497.60,360.92,181.70 495.66,358.23,181.69 494.11,354.12,181.68">
      <param key="origId" value="342_-1"/>
    </lane>
  </edge>
  <edge id=":194_5" function="internal">
    <lane id=":194_5_0" index="0" disallow="pedestrian tram rail_urban rail rail_electric rail_fast ship" speed="6.84" length="9.74" width="4.00" shape="489.96,361.61,181.72 492.39,360.51,181.71 493.89,358.89,181.70 494.46,356.76,181.69 494.11,354.12,181.68">
      <param key="origId" value="345_-1"/>
    </lane>
  </edge>
  <edge id=":194_6" function="internal">
    <lane id=":194_6_0" index="0" disallow="pedestrian tram rail_urban rail rail_electric rail_fast ship" speed="13.89" length="12.05" width="4.00" shape="489.96,361.61,181.72 501.52,358.21,181.71">
      <param key="origId" value="344_-1"/>
    </lane>
  </edge>
  <edge id=":195_0" function="internal">
    <lane id=":195_0_0" index="0" disallow="pedestrian tram rail_urban rail rail_electric rail_fast ship" speed="11.57" length="17.68" width="4.00" shape="300.54,425.61,181.89 299.00,422.56,181.89 296.19,419.89,181.88 292.10,417.60,181.88 286.73,415.69,181.87">
      <param key="origId" value="351_-1"/>
    </lane>
  </edge>
  <edge id=":195_1" function="internal">
    <lane id=":195_1_0" index="0" disallow="pedestrian tram rail_urban rail rail_electric rail_fast ship" speed="9.70" length="20.77" width="4.00" shape="300.54,425.61,181.89 300.32,421.20,181.87 302.29,417.41,181.84 306.45,414.23,181.80 312.80,411.68,181.76">
      <param key="origId" value="350_-1"/>
    </lane>
  </edge>
  <edge id=":195_2" function="internal">
    <lane id=":195_2_0" index="0" disallow="pedestrian tram rail_urban rail rail_electric rail_fast ship" speed="8.21" length="14.50" width="4.00" shape="313.96,415.51,181.76 309.18,417.33,181.81 305.99,419.44,181.84 304.40,421.84,181.87 304.40,424.53,181.89">
      <param key="origId" value="347_-1"/>
    </lane>
  </edge>
  <edge id=":195_3" function="internal">
    <lane id=":195_3_0" index="0" disallow="pedestrian tram rail_urban rail rail_electric rail_fast ship" speed="13.89" length="27.34" width="4.00" shape="313.96,415.51,181.76 308.36,416.34,181.78 300.35,416.66,181.82 292.34,416.44,181.85 286.73,415.69,181.87">
      <param key="origId" value="346_-1"/>
    </lane>
  </edge>
  <edge id=":195_4" function="internal">
    <lane id=":195_4_0" index="0" disallow="pedestrian tram rail_urban rail rail_electric rail_fast ship" speed="13.89" length="25.09" width="4.00" shape="287.84,411.84,181.87 293.09,412.60,181.85 300.33,412.82,181.82 307.56,412.51,181.78 312.80,411.68,181.76">
      <param key="origId" value="349_-1"/>
    </lane>
  </edge>
  <edge id=":195_5" function="internal">
    <lane id=":195_5_0" index="0" disallow="pedestrian tram rail_urban rail rail_electric rail_fast ship" speed="12.79" length="7.44" width="4.00" shape="287.84,411.84,181.87 294.18,414.16,181.88 294.77,414.51,181.88">
      <param key="origId" value="348_-1"/>
    </lane>
  </edge>
  <edge id=":195_6" function="internal">
    <lane id=":195_6_0" index="0" disallow="pedestrian tram rail_urban rail rail_electric rail_fast ship" speed="12.79" length="14.30" width="4.00" shape="294.77,414.51,181.88 299.05,417.05,181.88 302.46,420.50,181.89 304.40,424.53,181.89">
      <param key="origId" value="348_-1"/>
    </lane>
  </edge>
  <edge id=":196_0" function="internal">
    <lane id=":196_0_0" index="0" disallow="pedestrian tram rail_urban rail rail_electric rail_fast ship" speed="6.77" length="9.68" width="4.00" shape="528.94,360.60,181.67 527.87,358.17,181.67 526.28,356.67,181.67 524.16,356.12,181.67 521.53,356.50,181.68">
      <param key="origId" value="354_-1"/>
    </lane>
  </edge>
  <edge id=":196_1" function="internal">
    <lane id=":196_1_0" index="0" disallow="pedestrian tram rail_urban rail rail_electric rail_fast ship" speed="13.89" length="16.10" width="4.00" shape="528.94,360.60,181.67 524.60,345.09,181.63">
      <param key="origId" value="353_-1"/>
    </lane>
  </edge>
  <edge id=":196_2" function="internal">
    <lane id=":196_2_0" index="0" disallow="pedestrian tram rail_urban rail rail_electric rail_fast ship" speed="8.42" length="15.40" width="4.00" shape="528.94,360.60,181.67 528.84,356.91,181.67 530.20,353.15,181.66 532.67,349.99,181.66 535.86,348.12,181.66">
      <param key="origId" value="352_-1"/>
    </lane>
  </edge>
  <edge id=":196_3" function="internal">
    <lane id=":196_3_0" index="0" disallow="pedestrian tram rail_urban rail rail_electric rail_fast ship" speed="6.88" length="9.84" width="4.00" shape="536.98,351.96,181.66 534.54,353.07,181.66 533.02,354.71,181.66 532.44,356.86,181.67 532.79,359.53,181.67">
      <param key="origId" value="357_-1"/>
    </lane>
  </edge>
  <edge id=":196_4" function="internal">
    <lane id=":196_4_0" index="0" disallow="pedestrian tram rail_urban rail rail_electric rail_fast ship" speed="13.89" length="16.11" width="4.00" shape="536.98,351.96,181.66 521.53,356.50,181.68">
      <param key="origId" value="356_-1"/>
    </lane>
  </edge>
  <edge id=":196_5" function="internal">
    <lane id=":196_5_0" index="0" disallow="pedestrian tram rail_urban rail rail_electric rail_fast ship" speed="8.32" length="7.09" width="4.00" shape="536.98,351.96,181.66 533.32,352.08,181.65 530.10,350.92,181.64">
      <param key="origId" value="355_-1"/>
    </lane>
  </edge>
  <edge id=":196_12" function="internal">
    <lane id=":196_12_0" index="0" disallow="pedestrian tram rail_urban rail rail_electric rail_fast ship" speed="8.32" length="8.21" width="4.00" shape="530.10,350.92,181.64 529.57,350.73,181.64 526.43,348.27,181.64 524.60,345.09,181.63">
      <param key="origId" value="355_-1"/>
    </lane>
  </edge>
  <edge id=":196_6" function="internal">
    <lane id=":196_6_0" index="0" disallow="pedestrian tram rail_urban rail rail_electric rail_fast ship" speed="6.77" length="9.68" width="4.00" shape="528.45,344.01,181.63 529.52,346.45,181.64 531.11,347.94,181.64 533.23,348.50,181.65 535.86,348.12,181.66">
      <param key="origId" value="360_-1"/>
    </lane>
  </edge>
  <edge id=":196_7" function="internal">
    <lane id=":196_7_0" index="0" disallow="pedestrian tram rail_urban rail rail_electric rail_fast ship" speed="13.89" length="16.11" width="4.00" shape="528.45,344.01,181.63 532.79,359.53,181.67">
      <param key="origId" value="359_-1"/>
    </lane>
  </edge>
  <edge id=":196_8" function="internal">