<routes>
    <vType id="drt_small" vClass="bus" length="6" personCapacity="5" color="gray"/>
    <vType id="drt_large" vClass="bus" length="8" personCapacity="9" color="gray"/>

    <trip id="DRT1" type="drt_small" depart="0" line="LNDW_DRT" color="255,255,128">
        <stop busStop="bs0" duration="30"/>
        <stop busStop="bs1" duration="30"/>
        <stop busStop="bs15" duration="30"/>
        <stop busStop="bs20" duration="30"/>
        <stop busStop="bs11" duration="30"/>
        <stop busStop="bs12" duration="30"/>
        <stop busStop="bs8" duration="30"/>
        <stop busStop="bs6" duration="30"/>
        <stop busStop="bs0" duration="30"/>
        <stop busStop="bs1" duration="30"/>
        <stop busStop="bs15" duration="30"/>
        <stop busStop="bs20" duration="30"/>
        <stop busStop="bs11" duration="30"/>
        <stop busStop="bs12" duration="30"/>
        <stop busStop="bs8" duration="30"/>
        <stop busStop="bs6" duration="30"/>
        <stop busStop="bs0" duration="30"/>
        <stop busStop="bs1" duration="30"/>
        <stop busStop="bs15" duration="30"/>
        <stop busStop="bs20" duration="30"/>
        <stop busStop="bs11" duration="30"/>
        <stop busStop="bs12" duration="30"/>
        <stop busStop="bs8" duration="30"/>
        <stop busStop="bs6" duration="30"/>
        <stop busStop="bs0" duration="30"/>
        <stop busStop="bs1" duration="30"/>
        <stop busStop="bs15" duration="30"/>
        <stop busStop="bs20" duration="30"/>
        <stop busStop="bs11" duration="30"/>
        <stop busStop="bs12" duration="30"/>
        <stop busStop="bs8" duration="30"/>
        <stop busStop="bs6" duration="30"/>
        <stop busStop="bs0" duration="30"/>
        <stop busStop="bs1" duration="30"/>
        <stop busStop="bs15" duration="30"/>
        <stop busStop="bs20" duration="30"/>
        <stop busStop="bs11" duration="30"/>
        <stop busStop="bs12" duration="30"/>
        <stop busStop="bs8" duration="30"/>
        <stop busStop="bs6" duration="30"/>
        <stop busStop="bs0" duration="30"/>
        <stop busStop="bs1" duration="30"/>
        <stop busStop="bs15" duration="30"/>
        <stop busStop="bs20" duration="30"/>
        <stop busStop="bs11" duration="30"/>
        <stop busStop="bs12" duration="30"/>
        <stop busStop="bs8" duration="30"/>
        <stop busStop="bs6" duration="30"/>
        <stop busStop="bs0" duration="30"/>
        <stop busStop="bs1" duration="30"/>
        <stop busStop="bs15" duration="30"/>
        <stop busStop="bs20" duration="30"/>
        <stop busStop="bs11" duration="30"/>
        <stop busStop="bs12" duration="30"/>
        <stop busStop="bs8" duration="30"/>
        <stop busStop="bs6" duration="30"/>
        <stop busStop="bs0" duration="30"/>
        <stop busStop="bs1" duration="30"/>
        <stop busStop="bs15" duration="30"/>
        <stop busStop="bs20" duration="30"/>
        <stop busStop="bs11" duration="30"/>
        <stop busStop="bs12" duration="30"/>
        <stop busStop="bs8" duration="30"/>
        <stop busStop="bs6" duration="30"/>
        <stop busStop="bs0" duration="30"/>
        <stop busStop="bs1" duration="30"/>
        <stop busStop="bs15" duration="30"/>
        <stop busStop="bs20" duration="30"/>
        <stop busStop="bs11" duration="30"/>
        <stop busStop="bs12" duration="30"/>
        <stop busStop="bs8" duration="30"/>
        <stop busStop="bs6" duration="30"/>
        <stop busStop="bs0" duration="30"/>
        <stop busStop="bs1" duration="30"/>
        <stop busStop="bs15" duration="30"/>
        <stop busStop="bs20" duration="30"/>
        <stop busStop="bs11" duration="30"/>
        <stop busStop="bs12" duration="30"/>
        <stop busStop="bs8" duration="30"/>
        <stop busStop="bs6" duration="30"/>
        <stop busStop="bs0" duration="30"/>
        <stop busStop="bs1" duration="30"/>
        <stop busStop="bs15" duration="30"/>
        <stop busStop="bs20" duration="30"/>
        <stop busStop="bs11" duration="30"/>
        <stop busStop="bs12" duration="30"/>
        <stop busStop="bs8" duration="30"/>
        <stop busStop="bs6" duration="30"/>
        <stop busStop="bs0" duration="30"/>
        <stop busStop="bs1" duration="30"/>
        <stop busStop="bs15" duration="30"/>
        <stop busStop="bs20" duration="30"/>
        <stop busStop="bs11" duration="30"/>
        <stop busStop="bs12" duration="30"/>
        <stop busStop="bs8" duration="30"/>
        <stop busStop="bs6" duration="30"/>
        <stop busStop="bs0" duration="30"/>
        <stop busStop="bs1" duration="30"/>
        <stop busStop="bs15" duration="30"/>
        <stop busStop="bs20" duration="30"/>
        <stop busStop="bs11" duration="30"/>
        <stop busStop="bs12" duration="30"/>
        <stop busStop="bs8" duration="30"/>
        <stop busStop="bs6" duration="30"/>
        <stop busStop="bs0" duration="30"/>
        <stop busStop="bs1" duration="30"/>
        <stop busStop="bs15" duration="30"/>
        <stop busStop="bs20" duration="30"/>
        <stop busStop="bs11" duration="30"/>
        <stop busStop="bs12" duration="30"/>
        <stop busStop="bs8" duration="30"/>
        <stop busStop="bs6" duration="30"/>
        <stop busStop="bs0" duration="30"/>
        <stop busStop="bs1" duration="30"/>
        <stop busStop="bs15" duration="30"/>
        <stop busStop="bs20" duration="30"/>
        <stop busStop="bs11" duration="30"/>
        <stop busStop="bs12" duration="30"/>
        <stop busStop="bs8" duration="30"/>
        <stop busStop="bs6" duration="30"/>
        <stop busStop="bs0" duration="30"/>
        <stop busStop="bs1" duration="30"/>
        <stop busStop="bs15" duration="30"/>
        <stop busStop="bs20" duration="30"/>
        <stop busStop="bs11" duration="30"/>
        <stop busStop="bs12" duration="30"/>
        <stop busStop="bs8" duration="30"/>
        <stop busStop="bs6" duration="30"/>
        <stop busStop="bs0" duration="30"/>
        <stop busStop="bs1" duration="30"/>
        <stop busStop="bs15" duration="30"/>
        <stop busStop="bs20" duration="30"/>
        <stop busStop="bs11" duration="30"/>
        <stop busStop="bs12" duration="30"/>
        <stop busStop="bs8" duration="30"/>
        <stop busStop="bs6" duration="30"/>
        <stop busStop="bs0" duration="30"/>
        <stop busStop="bs1" duration="30"/>
        <stop busStop="bs15" duration="30"/>
        <stop busStop="bs20" duration="30"/>
        <stop busStop="bs11" duration="30"/>
        <stop busStop="bs12" duration="30"/>
        <stop busStop="bs8" duration="30"/>
        <stop busStop="bs6" duration="30"/>
        <stop busStop="bs0" duration="30"/>
        <stop busStop="bs1" duration="30"/>
        <stop busStop="bs15" duration="30"/>
        <stop busStop="bs20" duration="30"/>
        <stop busStop="bs11" duration="30"/>
        <stop busStop="bs12" duration="30"/>
        <stop busStop="bs8" duration="30"/>
        <stop busStop="bs6" duration="30"/>
        <stop busStop="bs0" duration="30"/>
        <stop busStop="bs1" duration="30"/>
        <stop busStop="bs15" duration="30"/>
        <stop busStop="bs20" duration="30"/>
        <stop busStop="bs11" duration="30"/>
        <stop busStop="bs12" duration="30"/>
        <stop busStop="bs8" duration="30"/>
        <stop busStop="bs6" duration="30"/>
    </trip>

    <trip id="DRT2" type="drt_large" depart="0" line="LNDW_DRT" color="128,255,128">
        <stop busStop="bs0" duration="30"/>
        <stop busStop="bs6" duration="30"/>
        <stop busStop="bs8" duration="30"/>
        <stop busStop="bs12" duration="30"/>
        <stop busStop="bs11" duration="30"/>
        <stop busStop="bs20" duration="30"/>
        <stop busStop="bs15" duration="30"/>
        <stop busStop="bs1" duration="30"/>
        <stop busStop="bs0" duration="30"/>
        <stop busStop="bs6" duration="30"/>
        <stop busStop="bs8" duration="30"/>
        <stop busStop="bs12" duration="30"/>
        <stop busStop="bs11" duration="30"/>
        <stop busStop="bs20" duration="30"/>
        <stop busStop="bs15" duration="30"/>
        <stop busStop="bs1" duration="30"/>
        <stop busStop="bs0" duration="30"/>
        <stop busStop="bs6" duration="30"/>
        <stop busStop="bs8" duration="30"/>
        <stop busStop="bs12" duration="30"/>
        <stop busStop="bs11" duration="30"/>
        <stop busStop="bs20" duration="30"/>
        <stop busStop="bs15" duration="30"/>
        <stop busStop="bs1" duration="30"/>
        <stop busStop="bs0" duration="30"/>
        <stop busStop="bs6" duration="30"/>
        <stop busStop="bs8" duration="30"/>
        <stop busStop="bs12" duration="30"/>
        <stop busStop="bs11" duration="30"/>
        <stop busStop="bs20" duration="30"/>
        <stop busStop="bs15" duration="30"/>
        <stop busStop="bs1" duration="30"/>
        <stop busStop="bs0" duration="30"/>
        <stop busStop="bs6" duration="30"/>
        <stop busStop="bs8" duration="30"/>
        <stop busStop="bs12" duration="30"/>
        <stop busStop="bs11" duration="30"/>
        <stop busStop="bs20" duration="30"/>
        <stop busStop="bs15" duration="30"/>
        <stop busStop="bs1" duration="30"/>
        <stop busStop="bs0" duration="30"/>
        <stop busStop="bs6" duration="30"/>
        <stop busStop="bs8" duration="30"/>
        <stop busStop="bs12" duration="30"/>
        <stop busStop="bs11" duration="30"/>
        <stop busStop="bs20" duration="30"/>
        <stop busStop="bs15" duration="30"/>
        <stop busStop="bs1" duration="30"/>
        <stop busStop="bs0" duration="30"/>
        <stop busStop="bs6" duration="30"/>
        <stop busStop="bs8" duration="30"/>
        <stop busStop="bs12" duration="30"/>
        <stop busStop="bs11" duration="30"/>
        <stop busStop="bs20" duration="30"/>
        <stop busStop="bs15" duration="30"/>
        <stop busStop="bs1" duration="30"/>
        <stop busStop="bs0" duration="30"/>
        <stop busStop="bs6" duration="30"/>
        <stop busStop="bs8" duration="30"/>
        <stop busStop="bs12" duration="30"/>
        <stop busStop="bs11" duration="30"/>
        <stop busStop="bs20" duration="30"/>
        <stop busStop="bs15" duration="30"/>
        <stop busStop="bs1" duration="30"/>
        <stop busStop="bs0" duration="30"/>
        <stop busStop="bs6" duration="30"/>
        <stop busStop="bs8" duration="30"/>
        <stop busStop="bs12" duration="30"/>
        <stop busStop="bs11" duration="30"/>
        <stop busStop="bs20" duration="30"/>
        <stop busStop="bs15" duration="30"/>
        <stop busStop="bs1" duration="30"/>
        <stop busStop="bs0" duration="30"/>
        <stop busStop="bs6" duration="30"/>
        <stop busStop="bs8" duration="30"/>
        <stop busStop="bs12" duration="30"/>
        <stop busStop="bs11" duration="30"/>
        <stop busStop="bs20" duration="30"/>
        <stop busStop="bs15" duration="30"/>
        <stop busStop="bs1" duration="30"/>
        <stop busStop="bs0" duration="30"/>
        <stop busStop="bs6" duration="30"/>
        <stop busStop="bs8" duration="30"/>
        <stop busStop="bs12" duration="30"/>
        <stop busStop="bs11" duration="30"/>
        <stop busStop="bs20" duration="30"/>
        <stop busStop="bs15" duration="30"/>
        <stop busStop="bs1" duration="30"/>
        <stop busStop="bs0" duration="30"/>
        <stop busStop="bs6" duration="30"/>
        <stop busStop="bs8" duration="30"/>
        <stop busStop="bs12" duration="30"/>
        <stop busStop="bs11" duration="30"/>
        <stop busStop="bs20" duration="30"/>
        <stop busStop="bs15" duration="30"/>
        <stop busStop="bs1" duration="30"/>
        <stop busStop="bs0" duration="30"/>
        <stop busStop="bs6" duration="30"/>
        <stop busStop="bs8" duration="30"/>
        <stop busStop="bs12" duration="30"/>
        <stop busStop="bs11" duration="30"/>
        <stop busStop="bs20" duration="30"/>
        <stop busStop="bs15" duration="30"/>
        <stop busStop="bs1" duration="30"/>
        <stop busStop="bs0" duration="30"/>
        <stop busStop="bs6" duration="30"/>
        <stop busStop="bs8" duration="30"/>
        <stop busStop="bs12" duration="30"/>
        <stop busStop="bs11" duration="30"/>
        <stop busStop="bs20" duration="30"/>
        <stop busStop="bs15" duration="30"/>
        <stop busStop="bs1" duration="30"/>
        <stop busStop="bs0" duration="30"/>
        <stop busStop="bs6" duration="30"/>
        <stop busStop="bs8" duration="30"/>
        <stop busStop="bs12" duration="30"/>
        <stop busStop="bs11" duration="30"/>
        <stop busStop="bs20" duration="30"/>
        <stop busStop="bs15" duration="30"/>
        <stop busStop="bs1" duration="30"/>
        <stop busStop="bs0" duration="30"/>
        <stop busStop="bs6" duration="30"/>
        <stop busStop="bs8" duration="30"/>
        <stop busStop="bs12" duration="30"/>
        <stop busStop="bs11" duration="30"/>
        <stop busStop="bs20" duration="30"/>
        <stop busStop="bs15" duration="30"/>
        <stop busStop="bs1" duration="30"/>
        <stop busStop="bs0" duration="30"/>
        <stop busStop="bs6" duration="30"/>
        <stop busStop="bs8" duration="30"/>
        <stop busStop="bs12" duration="30"/>
        <stop busStop="bs11" duration="30"/>
        <stop busStop="bs20" duration="30"/>
        <stop busStop="bs15" duration="30"/>
        <stop busStop="bs1" duration="30"/>
        <stop busStop="bs0" duration="30"/>
        <stop busStop="bs6" duration="30"/>
        <stop busStop="bs8" duration="30"/>
        <stop busStop="bs12" duration="30"/>
        <stop busStop="bs11" duration="30"/>
        <stop busStop="bs20" duration="30"/>
        <stop busStop="bs15" duration="30"/>
        <stop busStop="bs1" duration="30"/>
        <stop busStop="bs0" duration="30"/>
        <stop busStop="bs6" duration="30"/>
        <stop busStop="bs8" duration="30"/>
        <stop busStop="bs12" duration="30"/>
        <stop busStop="bs11" duration="30"/>
        <stop busStop="bs20" duration="30"/>
        <stop busStop="bs15" duration="30"/>
        <stop busStop="bs1" duration="30"/>
        <stop busStop="bs0" duration="30"/>
        <stop busStop="bs6" duration="30"/>
        <stop busStop="bs8" duration="30"/>
        <stop busStop="bs12" duration="30"/>
        <stop busStop="bs11" duration="30"/>
        <stop busStop="bs20" duration="30"/>
        <stop busStop="bs15" duration="30"/>
        <stop busStop="bs1" duration="30"/>
    </trip>


</routes>
