<?xml version="1.0" encoding="UTF-8"?>

<!-- generated on 06/02/14 14:59:12 by SUMO netconvert Version dev-SVN-r16443
<?xml version="1.0" encoding="UTF-8"?>

<configuration xmlns:xsi="http://www.w3.org/2001/XMLSchema-instance" xsi:noNamespaceSchemaLocation="https://sumo-sim.org/xsd/netconvertConfiguration.xsd">

    <input>
        <node-files value="data/input_nodes.nod.xml"/>
        <edge-files value="data/input_edges.edg.xml"/>
        <connection-files value="data/input_connections.con.xml"/>
    </input>

    <output>
        <output-file value="data/pasubio_buslanes.net.xml"/>
    </output>

    <processing>
        <roundabouts.guess value="true"/>
        <check-lane-foes.all value="true"/>
    </processing>

    <report>
        <verbose value="true"/>
    </report>

</configuration>
-->

<net version="0.13" xmlns:xsi="http://www.w3.org/2001/XMLSchema-instance" xsi:noNamespaceSchemaLocation="https://sumo-sim.org/xsd/net_file.xsd">

    <location netOffset="0.00,0.00" convBoundary="0.00,0.00,1827.72,1339.53" origBoundary="0.00,0.00,1827.72,1364.86" projParameter="!"/>

    <edge id=":0_0" function="internal">
        <lane id=":0_0_0" index="0" speed="13.89" length="35.15" shape="413.90,436.51 409.49,429.53 404.19,422.03 398.52,414.82 393.03,408.65"/>
        <lane id=":0_0_1" index="1" speed="13.89" length="35.15" shape="416.59,434.57 412.12,427.52 406.69,419.88 400.89,412.53 395.35,406.29"/>
    </edge>
    <edge id=":0_2" function="internal">
        <lane id=":0_2_0" index="0" speed="13.89" length="7.44" shape="416.59,434.57 414.06,427.57"/>
    </edge>
    <edge id=":0_16" function="internal">
        <lane id=":0_16_0" index="0" speed="13.89" length="32.04" shape="414.06,427.57 413.23,425.28 414.89,417.55 421.58,411.36 433.28,406.72"/>
    </edge>
    <edge id=":0_3" function="internal">
        <lane id=":0_3_0" index="0" speed="13.89" length="40.70" shape="436.95,420.23 426.90,423.46 417.64,426.42 408.38,429.39 398.33,432.60"/>
        <lane id=":0_3_1" index="1" speed="13.89" length="40.70" shape="436.08,417.04 426.01,420.27 416.71,423.26 407.40,426.24 397.32,429.46"/>
        <lane id=":0_3_2" index="2" speed="13.89" length="40.70" shape="435.22,413.86 425.12,417.09 415.77,420.09 406.41,423.09 396.32,426.32"/>
    </edge>
    <edge id=":0_6" function="internal">
        <lane id=":0_6_0" index="0" speed="13.89" length="27.41" shape="435.22,413.86 423.42,416.37 412.84,415.95 408.36,414.34"/>
    </edge>
    <edge id=":0_17" function="internal">
        <lane id=":0_17_0" index="0" speed="13.89" length="15.47" shape="408.36,414.34 403.48,412.59 395.35,406.29"/>
    </edge>
    <edge id=":0_7" function="internal">
        <lane id=":0_7_0" index="0" speed="13.89" length="40.02" shape="410.69,390.71 416.08,397.29 419.80,407.72 422.97,418.77 426.72,427.21"/>
    </edge>
    <edge id=":0_8" function="internal">
        <lane id=":0_8_0" index="0" speed="13.89" length="25.44" shape="408.25,393.20 413.94,396.79 418.78,399.77 424.18,401.26 431.55,400.35"/>
    </edge>
    <edge id=":0_9" function="internal">
        <lane id=":0_9_0" index="0" speed="13.89" length="40.02" shape="408.25,393.20 413.59,399.70 417.23,409.94 420.33,420.80 424.05,429.15"/>
    </edge>
    <edge id=":0_10" function="internal">
        <lane id=":0_10_0" index="0" speed="13.89" length="16.33" shape="408.25,393.20 420.19,402.20 420.50,403.53"/>
    </edge>
    <edge id=":0_18" function="internal">
        <lane id=":0_18_0" index="0" speed="13.89" length="38.13" shape="420.50,403.53 422.19,410.72 414.23,418.76 396.32,426.32"/>
    </edge>
    <edge id=":0_11" function="internal">
        <lane id=":0_11_0" index="0" speed="13.89" length="5.70" shape="392.02,412.87 393.52,412.12 394.19,411.16 394.03,410.01 393.03,408.65"/>
    </edge>
    <edge id=":0_12" function="internal">
        <lane id=":0_12_0" index="0" speed="13.89" length="41.33" shape="392.02,412.87 402.16,409.45 411.69,406.29 421.26,403.29 431.55,400.35"/>
        <lane id=":0_12_1" index="1" speed="13.89" length="41.33" shape="393.02,416.01 403.14,412.60 412.62,409.45 422.15,406.47 432.41,403.53"/>
        <lane id=":0_12_2" index="2" speed="13.89" length="41.33" shape="394.03,419.15 404.12,415.74 413.56,412.62 423.04,409.65 433.28,406.72"/>
    </edge>
    <edge id=":0_15" function="internal">
        <lane id=":0_15_0" index="0" speed="13.89" length="6.99" shape="394.03,419.15 400.89,417.83"/>
    </edge>
    <edge id=":0_19" function="internal">
        <lane id=":0_19_0" index="0" speed="13.89" length="27.16" shape="400.89,417.83 402.76,417.47 410.67,418.58 417.77,422.47 424.05,429.15"/>
    </edge>
    <edge id=":1_0" function="internal">
        <lane id=":1_0_0" index="0" speed="13.89" length="14.08" shape="927.22,295.13 925.64,292.61 923.11,290.85 919.65,289.84 915.23,289.58"/>
    </edge>
    <edge id=":1_1" function="internal">
        <lane id=":1_1_0" index="0" speed="13.89" length="29.81" shape="930.30,293.95 926.55,285.22 923.19,278.87 920.08,273.40 917.11,267.31"/>
        <lane id=":1_1_1" index="1" speed="13.89" length="29.81" shape="933.38,292.77 929.62,284.00 926.24,277.61 923.12,272.11 920.15,266.01"/>
    </edge>
    <edge id=":1_3" function="internal">
        <lane id=":1_3_0" index="0" speed="13.89" length="5.47" shape="938.89,287.94 937.33,288.24 936.41,288.95 936.12,290.06 936.46,291.59"/>
    </edge>
    <edge id=":1_4" function="internal">
        <lane id=":1_4_0" index="0" speed="13.89" length="23.74" shape="938.83,284.64 931.80,285.11 927.00,285.58 922.19,285.99 915.15,286.28"/>
    </edge>
    <edge id=":1_5" function="internal">
        <lane id=":1_5_0" index="0" speed="13.89" length="3.99" shape="938.77,281.34 934.81,280.82"/>
    </edge>
    <edge id=":1_14" function="internal">
        <lane id=":1_14_0" index="0" speed="13.89" length="21.74" shape="934.81,280.82 933.18,280.61 928.21,277.81 923.86,272.94 920.15,266.01"/>
    </edge>
    <edge id=":1_6" function="internal">
        <lane id=":1_6_0" index="0" speed="13.89" length="13.69" shape="929.63,261.97 931.86,266.17 934.09,269.16 936.34,270.94 938.60,271.51"/>
    </edge>
    <edge id=":1_7" function="internal">
        <lane id=":1_7_0" index="0" speed="13.89" length="30.52" shape="929.63,261.97 933.10,271.68 934.73,280.13 935.53,286.91 936.46,291.59"/>
    </edge>
    <edge id=":1_8" function="internal">
        <lane id=":1_8_0" index="0" speed="13.89" length="7.70" shape="926.59,263.26 929.18,271.32"/>
        <lane id=":1_8_1" index="1" speed="13.89" length="7.70" shape="923.56,264.56 925.71,271.15"/>
    </edge>
    <edge id=":1_15" function="internal">
        <lane id=":1_15_0" index="0" speed="13.89" length="24.68" shape="929.18,271.32 929.77,273.13 928.92,280.26 924.05,284.64 915.15,286.28"/>
    </edge>
    <edge id=":1_16" function="internal">
        <lane id=":1_16_0" index="0" speed="13.89" length="19.16" shape="925.71,271.15 926.14,272.46 925.59,278.17 921.90,281.68 915.07,282.99"/>
    </edge>
    <edge id=":1_10" function="internal">
        <lane id=":1_10_0" index="0" speed="13.89" length="5.54" shape="914.77,270.94 916.37,270.69 917.29,270.00 917.54,268.88 917.11,267.31"/>
    </edge>
    <edge id=":1_11" function="internal">
        <lane id=":1_11_0" index="0" speed="13.89" length="23.83" shape="914.77,270.94 922.12,270.98 927.40,271.23 932.33,271.47 938.60,271.51"/>
        <lane id=":1_11_1" index="1" speed="13.89" length="23.83" shape="914.85,274.24 922.19,274.28 927.47,274.53 932.39,274.77 938.66,274.81"/>
    </edge>
    <edge id=":1_13" function="internal">
        <lane id=":1_13_0" index="0" speed="13.89" length="8.24" shape="914.94,277.54 922.31,278.33 923.07,278.66"/>
    </edge>
    <edge id=":1_17" function="internal">
        <lane id=":1_17_0" index="0" speed="13.89" length="19.31" shape="923.07,278.66 928.35,280.94 933.07,285.36 936.46,291.59"/>
    </edge>
    <edge id=":10_0" function="internal">
        <lane id=":10_0_0" index="0" speed="13.89" length="15.93" shape="803.35,976.21 798.88,975.45 795.73,976.03 792.67,977.60 788.47,979.83"/>
    </edge>
    <edge id=":10_1" function="internal">
        <lane id=":10_1_0" index="0" speed="13.89" length="5.67" shape="804.23,973.03 798.80,971.36"/>
    </edge>
    <edge id=":10_2" function="internal">
        <lane id=":10_2_0" index="0" speed="13.89" length="5.34" shape="804.23,973.03 799.22,971.17"/>
    </edge>
    <edge id=":10_14" function="internal">
        <lane id=":10_14_0" index="0" speed="13.89" length="16.81" shape="798.80,971.36 796.19,970.55 790.18,968.14 786.21,965.79 784.28,963.51"/>
    </edge>
    <edge id=":10_15" function="internal">
        <lane id=":10_15_0" index="0" speed="13.89" length="12.55" shape="799.22,971.17 798.23,970.80 795.71,968.39 796.68,965.79 801.12,963.02"/>
    </edge>
    <edge id=":10_3" function="internal">
        <lane id=":10_3_0" index="0" speed="13.89" length="18.59" shape="803.90,969.00 798.89,971.32 795.46,972.90 792.04,974.50 787.05,976.85"/>
        <lane id=":10_3_1" index="1" speed="13.89" length="18.59" shape="802.51,966.01 797.49,968.33 794.06,969.91 790.64,971.51 785.64,973.87"/>
    </edge>
    <edge id=":10_5" function="internal">
        <lane id=":10_5_0" index="0" speed="13.89" length="11.40" shape="802.51,966.01 795.94,968.37 791.53,968.68"/>
    </edge>
    <edge id=":10_6" function="internal">
        <lane id=":10_6_0" index="0" speed="13.89" length="2.41" shape="802.51,966.01 801.04,965.78 800.32,965.21"/>
    </edge>
    <edge id=":10_16" function="internal">
        <lane id=":10_16_0" index="0" speed="13.89" length="9.45" shape="791.53,968.68 790.71,968.74 786.82,967.12 784.28,963.51"/>
    </edge>
    <edge id=":10_17" function="internal">
        <lane id=":10_17_0" index="0" speed="13.89" length="2.41" shape="800.32,965.21 800.34,964.29 801.12,963.02"/>
    </edge>
    <edge id=":10_7" function="internal">
        <lane id=":10_7_0" index="0" speed="13.89" length="13.30" shape="787.34,962.27 788.56,963.23 791.03,963.18 794.76,962.11 799.73,960.02"/>
    </edge>
    <edge id=":10_8" function="internal">
        <lane id=":10_8_0" index="0" speed="13.89" length="3.20" shape="787.34,962.27 788.28,965.33"/>
    </edge>
    <edge id=":10_9" function="internal">
        <lane id=":10_9_0" index="0" speed="13.89" length="2.41" shape="787.34,962.27 787.04,963.73 786.43,964.42"/>
    </edge>
    <edge id=":10_18" function="internal">
        <lane id=":10_18_0" index="0" speed="13.89" length="9.81" shape="788.28,965.33 788.61,966.39 788.75,969.70 787.76,972.19 785.64,973.87"/>
    </edge>
    <edge id=":10_19" function="internal">
        <lane id=":10_19_0" index="0" speed="13.89" length="2.41" shape="786.43,964.42 785.51,964.35 784.28,963.51"/>
    </edge>
    <edge id=":10_10" function="internal">
        <lane id=":10_10_0" index="0" speed="13.89" length="5.21" shape="782.82,967.90 783.93,967.15 784.54,966.16 784.66,964.95 784.28,963.51"/>
    </edge>
    <edge id=":10_11" function="internal">
        <lane id=":10_11_0" index="0" speed="13.89" length="18.65" shape="782.82,967.90 787.83,965.54 791.26,963.94 794.70,962.35 799.73,960.02"/>
        <lane id=":10_11_1" index="1" speed="13.89" length="18.65" shape="784.23,970.89 789.23,968.53 792.66,966.93 796.10,965.34 801.12,963.02"/>
    </edge>
    <edge id=":10_13" function="internal">
        <lane id=":10_13_0" index="0" speed="13.89" length="2.41" shape="784.23,970.89 785.70,971.10 786.43,971.67"/>
    </edge>
    <edge id=":10_20" function="internal">
        <lane id=":10_20_0" index="0" speed="13.89" length="2.41" shape="786.43,971.67 786.41,972.59 785.64,973.87"/>
    </edge>
    <edge id=":12_0" function="internal">
        <lane id=":12_0_0" index="0" speed="13.89" length="10.49" shape="701.85,1020.85 699.36,1022.60 698.09,1024.45 696.81,1026.27 694.30,1027.97"/>
        <lane id=":12_0_1" index="1" speed="13.89" length="10.49" shape="700.44,1017.87 697.96,1019.61 696.71,1021.45 695.44,1023.27 692.94,1024.96"/>
        <lane id=":12_0_2" index="2" speed="13.89" length="10.49" shape="699.03,1014.88 696.57,1016.62 695.32,1018.45 694.07,1020.27 691.59,1021.95"/>
    </edge>
    <edge id=":12_3" function="internal">
        <lane id=":12_3_0" index="0" speed="13.89" length="7.84" shape="699.03,1014.88 696.16,1015.56 693.55,1014.76 692.00,1013.26"/>
    </edge>
    <edge id=":12_8" function="internal">
        <lane id=":12_8_0" index="0" speed="13.89" length="5.44" shape="692.00,1013.26 691.19,1012.48 689.07,1008.72"/>
    </edge>
    <edge id=":12_4" function="internal">
        <lane id=":12_4_0" index="0" speed="13.89" length="5.03" shape="692.09,1007.39 692.83,1008.56 693.76,1009.21 694.88,1009.33 696.20,1008.92"/>
    </edge>
    <edge id=":12_5" function="internal">
        <lane id=":12_5_0" index="0" speed="13.89" length="4.04" shape="692.09,1007.39 693.38,1011.22"/>
    </edge>
    <edge id=":12_9" function="internal">
        <lane id=":12_9_0" index="0" speed="13.89" length="9.11" shape="693.38,1011.22 693.46,1011.46 693.60,1014.75 692.53,1017.24 690.24,1018.94"/>
    </edge>
    <edge id=":12_6" function="internal">
        <lane id=":12_6_0" index="0" speed="13.89" length="7.94" shape="688.88,1015.93 689.95,1015.01 690.34,1013.50 690.05,1011.40 689.07,1008.72"/>
    </edge>
    <edge id=":12_7" function="internal">
        <lane id=":12_7_0" index="0" speed="13.89" length="10.31" shape="688.88,1015.93 691.31,1014.28 692.53,1012.47 693.77,1010.64 696.20,1008.92"/>
    </edge>
    <edge id=":13_0" function="internal">
        <lane id=":13_0_0" index="0" speed="13.89" length="0.10" shape="232.78,1215.00 232.82,1215.08"/>
        <lane id=":13_0_1" index="1" speed="13.89" length="0.10" shape="234.16,1218.00 234.20,1218.08"/>
    </edge>
    <edge id=":14_0" function="internal">
        <lane id=":14_0_0" index="0" speed="13.89" length="3.49" shape="307.51,1180.78 310.35,1179.72"/>
        <lane id=":14_0_1" index="1" speed="13.89" length="3.49" shape="308.88,1183.78 311.63,1182.76"/>
        <lane id=":14_0_2" index="2" speed="13.89" length="3.49" shape="308.88,1183.78 312.92,1185.80"/>
    </edge>
    <edge id=":15_0" function="internal">
        <lane id=":15_0_0" index="0" speed="13.89" length="8.29" shape="1356.56,718.46 1355.05,715.85 1353.58,714.17 1352.14,713.42 1350.74,713.58"/>
    </edge>
    <edge id=":15_1" function="internal">
        <lane id=":15_1_0" index="0" speed="13.89" length="16.58" shape="1359.52,716.99 1357.13,712.17 1355.31,708.45 1353.81,705.27 1352.37,702.04"/>
    </edge>
    <edge id=":15_2" function="internal">
        <lane id=":15_2_0" index="0" speed="13.89" length="5.04" shape="1366.90,709.94 1365.73,710.68 1365.09,711.61 1364.99,712.74 1365.43,714.06"/>
    </edge>
    <edge id=":15_3" function="internal">
        <lane id=":15_3_0" index="0" speed="13.89" length="16.67" shape="1366.90,709.94 1362.24,711.45 1358.81,711.74 1355.38,712.04 1350.74,713.58"/>
        <lane id=":15_3_1" index="1" speed="13.89" length="16.67" shape="1365.53,706.93 1360.88,708.44 1357.45,708.73 1354.02,709.04 1349.38,710.58"/>
    </edge>
    <edge id=":15_5" function="internal">
        <lane id=":15_5_0" index="0" speed="13.89" length="3.40" shape="1364.17,703.93 1360.94,705.02"/>
    </edge>
    <edge id=":15_12" function="internal">
        <lane id=":15_12_0" index="0" speed="13.89" length="10.07" shape="1360.94,705.02 1359.98,705.35 1356.62,705.50 1354.08,704.40 1352.37,702.04"/>
    </edge>
    <edge id=":15_6" function="internal">
        <lane id=":15_6_0" index="0" allow="bus" speed="13.89" length="5.25" shape="1358.42,699.41 1359.16,700.57 1360.13,701.21 1361.34,701.30 1362.77,700.86"/>
    </edge>
    <edge id=":15_7" function="internal">
        <lane id=":15_7_0" index="0" speed="13.89" length="16.33" shape="1358.42,699.41 1360.37,703.82 1361.78,706.80 1363.27,709.75 1365.43,714.06"/>
        <lane id=":15_7_1" index="1" speed="13.89" length="16.33" shape="1355.39,700.72 1357.37,705.18 1358.79,708.19 1360.29,711.17 1362.47,715.53"/>
    </edge>
    <edge id=":15_9" function="internal">
        <lane id=":15_9_0" index="0" speed="13.89" length="3.37" shape="1355.39,700.72 1355.99,703.57 1355.85,704.01"/>
    </edge>
    <edge id=":15_13" function="internal">
        <lane id=":15_13_0" index="0" speed="13.89" length="9.62" shape="1355.85,704.01 1355.18,706.16 1352.98,708.50 1349.38,710.58"/>
    </edge>
    <edge id=":15_10" function="internal">
        <lane id=":15_10_0" index="0" speed="13.89" length="7.79" shape="1348.01,707.57 1350.40,706.27 1351.92,704.91 1352.58,703.50 1352.37,702.04"/>
    </edge>
    <edge id=":15_11" function="internal">
        <lane id=":15_11_0" index="0" allow="bus" speed="13.89" length="16.21" shape="1348.01,707.57 1351.60,705.94 1355.39,704.22 1359.19,702.49 1362.77,700.86"/>
    </edge>
    <edge id=":16_0" function="internal">
        <lane id=":16_0_0" index="0" speed="13.89" length="0.34" shape="102.35,653.19 102.73,653.61"/>
        <lane id=":16_0_1" index="1" speed="13.89" length="0.34" shape="99.99,655.50 100.22,655.75"/>
        <lane id=":16_0_2" index="2" speed="13.89" length="0.34" shape="97.63,657.81 97.71,657.89"/>
    </edge>
    <edge id=":17_0" function="internal">
        <lane id=":17_0_0" index="0" speed="13.89" length="5.00" shape="210.78,745.59 209.61,746.30 208.94,747.22 208.79,748.34 209.14,749.66"/>
    </edge>
    <edge id=":17_1" function="internal">
        <lane id=":17_1_0" index="0" speed="13.89" length="4.82" shape="210.78,745.59 209.31,745.32 208.61,744.73 208.66,743.81 209.48,742.56"/>
    </edge>
    <edge id=":17_2" function="internal">
        <lane id=":17_2_0" index="0" speed="13.89" length="8.57" shape="201.44,742.97 202.53,743.83 204.24,744.04 206.55,743.62 209.48,742.56"/>
    </edge>
    <edge id=":17_3" function="internal">
        <lane id=":17_3_0" index="0" speed="13.89" length="10.02" shape="201.44,742.97 203.56,745.14 205.61,746.15 207.49,747.23 209.14,749.66"/>
        <lane id=":17_3_1" index="1" speed="13.89" length="10.02" shape="198.70,744.80 206.10,750.95"/>
    </edge>
    <edge id=":18_0" function="internal">
        <lane id=":18_0_0" index="0" speed="13.89" length="7.88" shape="513.72,619.63 512.76,618.47 511.26,617.99 509.21,618.19 506.62,619.08"/>
    </edge>
    <edge id=":18_1" function="internal">
        <lane id=":18_1_0" index="0" speed="13.89" length="10.42" shape="513.72,619.63 512.07,617.15 510.32,615.78 508.55,614.41 506.88,611.94"/>
    </edge>
    <edge id=":18_2" function="internal">
        <lane id=":18_2_0" index="0" allow="bus" speed="13.89" length="3.42" shape="513.72,619.63 513.03,616.78 513.16,616.32"/>
    </edge>
    <edge id=":18_12" function="internal">
        <lane id=":18_12_0" index="0" speed="13.89" length="9.14" shape="513.16,616.32 513.74,614.26 515.85,612.08 519.36,610.22"/>
    </edge>
    <edge id=":18_3" function="internal">
        <lane id=":18_3_0" index="0" speed="13.89" length="7.09" shape="520.59,613.29 518.40,614.38 517.02,615.57 516.46,616.86 516.72,618.26"/>
    </edge>
    <edge id=":18_4" function="internal">
        <lane id=":18_4_0" index="0" speed="13.89" length="15.12" shape="520.59,613.29 517.09,614.70 513.59,616.14 510.09,617.60 506.62,619.08"/>
    </edge>
    <edge id=":18_5" function="internal">
        <lane id=":18_5_0" index="0" speed="13.89" length="4.92" shape="520.59,613.29 515.90,614.76"/>
    </edge>
    <edge id=":18_13" function="internal">
        <lane id=":18_13_0" index="0" speed="13.89" length="10.25" shape="515.90,614.76 515.60,614.86 511.66,615.15 508.75,614.18 506.88,611.94"/>
    </edge>
    <edge id=":18_6" function="internal">
        <lane id=":18_6_0" index="0" allow="bus" speed="13.89" length="5.40" shape="515.04,608.11 515.88,609.45 516.89,610.25 518.05,610.51 519.36,610.22"/>
    </edge>
    <edge id=":18_7" function="internal">
        <lane id=":18_7_0" index="0" speed="13.89" length="10.40" shape="515.04,608.11 515.94,611.02 515.92,613.22 515.89,615.41 516.72,618.26"/>
    </edge>
    <edge id=":18_8" function="internal">
        <lane id=":18_8_0" index="0" speed="13.89" length="3.57" shape="512.05,609.51 512.78,612.37 512.63,612.97"/>
    </edge>
    <edge id=":18_14" function="internal">
        <lane id=":18_14_0" index="0" speed="13.89" length="9.00" shape="512.63,612.97 512.12,614.91 510.07,617.15 506.62,619.08"/>
    </edge>
    <edge id=":18_9" function="internal">
        <lane id=":18_9_0" index="0" speed="13.89" length="5.04" shape="505.32,616.04 506.51,615.32 507.16,614.40 507.29,613.27 506.88,611.94"/>
    </edge>
    <edge id=":18_10" function="internal">
        <lane id=":18_10_0" index="0" allow="bus" speed="13.89" length="15.20" shape="505.32,616.04 508.80,614.56 512.32,613.09 515.86,611.64 519.36,610.22"/>
    </edge>
    <edge id=":18_11" function="internal">
        <lane id=":18_11_0" index="0" speed="13.89" length="3.97" shape="505.32,616.04 509.11,614.85"/>
    </edge>
    <edge id=":18_15" function="internal">
        <lane id=":18_15_0" index="0" speed="13.89" length="9.07" shape="509.11,614.85 509.29,614.79 512.51,614.74 514.99,615.90 516.72,618.26"/>
    </edge>
    <edge id=":19_0" function="internal">
        <lane id=":19_0_0" index="0" speed="13.89" length="5.02" shape="611.55,833.06 610.82,831.89 609.90,831.24 608.77,831.11 607.45,831.51"/>
    </edge>
    <edge id=":19_1" function="internal">
        <lane id=":19_1_0" index="0" speed="13.89" length="9.52" shape="611.55,833.06 607.65,824.37"/>
    </edge>
    <edge id=":19_2" function="internal">
        <lane id=":19_2_0" index="0" speed="13.89" length="7.09" shape="611.55,833.06 610.78,830.30 611.08,827.98 612.20,826.46"/>
    </edge>
    <edge id=":19_9" function="internal">
        <lane id=":19_9_0" index="0" speed="13.89" length="3.27" shape="612.20,826.46 612.46,826.12 614.92,824.70"/>
    </edge>
    <edge id=":19_3" function="internal">
        <lane id=":19_3_0" index="0" speed="13.89" length="5.19" shape="610.65,823.00 611.41,824.18 612.37,824.86 613.55,825.03 614.92,824.70"/>
    </edge>
    <edge id=":19_4" function="internal">
        <lane id=":19_4_0" index="0" speed="13.89" length="9.57" shape="610.65,823.00 614.57,831.73"/>
    </edge>
    <edge id=":19_5" function="internal">
        <lane id=":19_5_0" index="0" speed="13.89" length="7.17" shape="610.65,823.00 611.44,825.70 611.18,828.03 610.04,829.68"/>
    </edge>
    <edge id=":19_10" function="internal">
        <lane id=":19_10_0" index="0" speed="13.89" length="3.19" shape="610.04,829.68 609.85,829.96 607.45,831.51"/>
    </edge>
    <edge id=":19_6" function="internal">
        <lane id=":19_6_0" index="0" speed="13.89" length="5.06" shape="606.06,828.52 607.24,827.76 607.89,826.82 608.03,825.69 607.65,824.37"/>
    </edge>
    <edge id=":19_7" function="internal">
        <lane id=":19_7_0" index="0" speed="13.89" length="9.65" shape="606.06,828.52 614.92,824.70"/>
    </edge>
    <edge id=":19_8" function="internal">
        <lane id=":19_8_0" index="0" speed="13.89" length="10.42" shape="606.06,828.52 608.80,827.69 611.13,827.95 613.06,829.30 614.57,831.73"/>
    </edge>
    <edge id=":2_0" function="internal">
        <lane id=":2_0_0" index="0" speed="13.89" length="7.37" shape="731.00,318.31 730.06,316.71 728.73,315.81 727.01,315.61 724.89,316.11"/>
    </edge>
    <edge id=":2_1" function="internal">
        <lane id=":2_1_0" index="0" speed="13.89" length="10.48" shape="734.64,313.88 731.71,314.43 729.69,314.74 727.70,315.18 724.89,316.11"/>
        <lane id=":2_1_1" index="1" speed="13.89" length="10.48" shape="733.94,310.65 730.88,311.23 728.77,311.57 726.70,312.04 723.75,313.01"/>
        <lane id=":2_1_2" index="2" speed="13.89" length="10.48" shape="733.25,307.43 730.06,308.03 727.85,308.39 725.69,308.89 722.62,309.91"/>
    </edge>
    <edge id=":20_0" function="internal">
        <lane id=":20_0_0" index="0" speed="13.89" length="13.30" shape="440.28,478.01 437.89,475.54 435.30,473.77 432.48,472.24 429.43,470.51"/>
    </edge>
    <edge id=":20_1" function="internal">
        <lane id=":20_1_0" index="0" speed="13.89" length="13.02" shape="440.28,478.01 438.19,475.55 436.31,473.55 434.39,471.25 432.17,467.84"/>
        <lane id=":20_1_1" index="1" speed="13.89" length="13.02" shape="440.28,478.01 438.63,475.28 437.73,472.71 436.79,469.83 435.02,466.18"/>
    </edge>
    <edge id=":21_0" function="internal">
        <lane id=":21_0_0" index="0" speed="13.89" length="0.93" shape="358.12,368.59 359.51,368.60"/>
        <lane id=":21_0_1" index="1" speed="13.89" length="0.93" shape="358.56,371.86 359.01,371.86"/>
    </edge>
    <edge id=":22_0" function="internal">
        <lane id=":22_0_0" index="0" speed="13.89" length="3.82" shape="449.00,460.90 449.96,464.15"/>
        <lane id=":22_0_1" index="1" speed="13.89" length="3.82" shape="445.73,461.41 446.94,465.48"/>
    </edge>
    <edge id=":22_2" function="internal">
        <lane id=":22_2_0" index="0" speed="13.89" length="2.72" shape="447.00,461.21 449.96,464.15"/>
        <lane id=":22_2_1" index="1" speed="13.89" length="2.72" shape="445.77,466.00 446.94,465.48"/>
    </edge>
    <edge id=":23_0" function="internal">
        <lane id=":23_0_0" index="0" speed="13.89" length="5.02" shape="802.50,507.33 801.83,506.12 800.94,505.42 799.83,505.23 798.49,505.56"/>
    </edge>
    <edge id=":23_1" function="internal">
        <lane id=":23_1_0" index="0" speed="13.89" length="12.89" shape="802.50,507.33 801.29,504.12 800.23,501.29 799.16,498.46 797.95,495.26"/>
    </edge>
    <edge id=":23_2" function="internal">
        <lane id=":23_2_0" index="0" speed="13.89" length="12.03" shape="802.50,507.33 801.28,503.23 801.04,500.05 801.78,497.79 803.51,496.45"/>
    </edge>
    <edge id=":23_3" function="internal">
        <lane id=":23_3_0" index="0" speed="13.89" length="8.04" shape="804.73,499.51 797.26,502.49"/>
    </edge>
    <edge id=":23_4" function="internal">
        <lane id=":23_4_0" index="0" speed="13.89" length="5.90" shape="804.73,499.51 802.62,499.92 800.79,499.35 799.49,498.05"/>
    </edge>
    <edge id=":23_10" function="internal">
        <lane id=":23_10_0" index="0" speed="13.89" length="3.20" shape="799.49,498.05 799.23,497.79 797.95,495.26"/>
    </edge>
    <edge id=":23_5" function="internal">
        <lane id=":23_5_0" index="0" speed="13.89" length="5.02" shape="799.49,494.68 800.16,495.89 801.05,496.59 802.16,496.77 803.51,496.45"/>
    </edge>
    <edge id=":23_6" function="internal">
        <lane id=":23_6_0" index="0" speed="13.89" length="9.18" shape="799.49,494.68 800.21,497.42 800.07,499.64 799.09,501.33 797.26,502.49"/>
    </edge>
    <edge id=":23_7" function="internal">
        <lane id=":23_7_0" index="0" speed="13.89" length="2.41" shape="799.49,494.68 799.33,495.41 799.01,495.74 798.55,495.70 797.95,495.26"/>
    </edge>
    <edge id=":23_8" function="internal">
        <lane id=":23_8_0" index="0" speed="13.89" length="5.21" shape="796.03,499.43 797.29,498.72 798.03,497.78 798.25,496.63 797.95,495.26"/>
    </edge>
    <edge id=":23_9" function="internal">
        <lane id=":23_9_0" index="0" speed="13.89" length="8.05" shape="796.03,499.43 803.51,496.45"/>
    </edge>
    <edge id=":24_0" function="internal">
        <lane id=":24_0_0" index="0" speed="13.89" length="1.09" shape="486.43,887.68 485.65,888.45"/>
    </edge>
    <edge id=":24_1" function="internal">
        <lane id=":24_1_0" index="0" speed="13.89" length="3.35" shape="482.66,887.05 485.04,884.69"/>
    </edge>
    <edge id=":24_2" function="internal">
        <lane id=":24_2_0" index="0" speed="13.89" length="2.41" shape="482.66,887.05 483.94,886.28 484.86,886.26"/>
    </edge>
    <edge id=":24_3" function="internal">
        <lane id=":24_3_0" index="0" speed="13.89" length="2.41" shape="484.86,886.26 485.43,886.98 485.65,888.45"/>
    </edge>
    <edge id=":26_0" function="internal">
        <lane id=":26_0_0" index="0" speed="13.89" length="4.82" shape="713.81,790.05 714.11,788.59 714.72,787.90 715.64,787.97 716.87,788.81"/>
    </edge>
    <edge id=":26_1" function="internal">
        <lane id=":26_1_0" index="0" speed="13.89" length="45.82" shape="757.53,767.69 739.69,776.82 726.97,783.38 719.36,787.38 716.87,788.81"/>
    </edge>
    <edge id=":26_2" function="internal">
        <lane id=":26_2_0" index="0" speed="13.89" length="32.78" shape="744.76,772.92 731.93,778.34 723.01,782.79 717.98,786.28 716.87,788.81"/>
    </edge>
    <edge id=":26.-170_0" function="internal">
        <lane id=":26.-170_0_0" index="0" speed="13.89" length="3.00" shape="672.99,552.26 670.21,553.37"/>
    </edge>
    <edge id=":27_0" function="internal">
        <lane id=":27_0_0" index="0" speed="13.89" length="6.77" shape="958.63,898.91 951.88,898.48"/>
        <lane id=":27_0_1" index="1" speed="13.89" length="6.77" shape="957.21,895.93 950.44,895.51"/>
    </edge>
    <edge id=":27_2" function="internal">
        <lane id=":27_2_0" index="0" speed="13.89" length="4.51" shape="955.80,892.95 954.23,893.03 952.60,891.81 952.10,891.06"/>
    </edge>
    <edge id=":27_5" function="internal">
        <lane id=":27_5_0" index="0" speed="13.89" length="6.32" shape="952.10,891.06 950.91,889.30 949.15,885.49"/>
    </edge>
    <edge id=":27_3" function="internal">
        <lane id=":27_3_0" index="0" speed="13.89" length="4.92" shape="947.57,889.57 948.68,888.82 949.31,887.89 949.47,886.78 949.15,885.49"/>
    </edge>
    <edge id=":27_4" function="internal">
        <lane id=":27_4_0" index="0" allow="bus" speed="13.89" length="5.97" shape="949.01,892.54 954.39,889.97"/>
    </edge>
    <edge id=":28_0" function="internal">
        <lane id=":28_0_0" index="0" speed="13.89" length="6.24" shape="878.99,710.21 876.73,704.40"/>
    </edge>
    <edge id=":28_1" function="internal">
        <lane id=":28_1_0" index="0" speed="13.89" length="5.07" shape="880.78,706.09 879.43,706.47 878.31,706.32 877.41,705.63 876.73,704.40"/>
    </edge>