<routes>	
    <vehicle depart="0" departPos="0" departLane="best" arrivalPos="-1" type="private" id="Borgo_100_0"><route edges="6 100 7 3[1] 3[1]b"></route></vehicle>	
    <vehicle depart="0" departPos="0" departLane="best" arrivalPos="-1" type="private" id="Certosa_9_0"><route edges="22[0] 22[1] 2[1][1][1] 2[1][1][1]b"></route></vehicle>
    <vehicle depart="0" departPos="0" departLane="best" arrivalPos="-1" type="private" id="Malvasia_70_0"><route edges="52 51 56[0] 39[0] 39[1][0] 39[1][1][0] 39[1][1][1] 45 44"></route></vehicle>
    <vehicle depart="0" departPos="0" departLane="best" arrivalPos="-1" type="private" id="Montefiorino_80_0"><route edges="43 81 2[0] 2[1][0] 2[1][1][0] 21"></route></vehicle>
    <vehicle depart="0" departPos="0" departLane="best" arrivalPos="-1" type="private" id="Pertini_20_0"><route edges="63[0] 63[1] 4[0] 4[1][1][0] 4[1][1][1]"></route></vehicle>
    <vehicle depart="0" departPos="0" departLane="best" arrivalPos="-1" type="private" id="Prati_Capraia_10_0"><route edges="3[0] 10"></route></vehicle>
    <vehicle depart="0" departPos="0" departLane="best" arrivalPos="-1" type="private" id="Sabotino_9_0"><route edges="41 42 2[0] 2[1][0] 2[1][1][0] 2[1][1][1] 2[1][1][1]b"></route></vehicle>
    <vehicle depart="0" departPos="0" departLane="best" arrivalPos="-1" type="private" id="Saffi_103_0"><route edges="12 56[0] 56[1][0] 56[1][1] 5[1][0]+66 5[1][1][1] 8 3[1] 3[1]b"></route></vehicle>
    <vehicle depart="1" departPos="0" departLane="best" arrivalPos="-1" type="ignoring" id="Gandhi_50_1"><route edges="1[0] 25 23 17[0] 17[1] 11[0] 11[1][1] 101 35[0] 35[1][0] 35[1][1][0] 20000+35[1][1][1][0] 35[1][1][1][1]"></route></vehicle>
    <vehicle depart="2" departPos="0" departLane="best" arrivalPos="-1" type="private" id="Pertini_20_1"><route edges="63[0] 63[1] 4[0] 4[1][1][0] 4[1][1][1]"></route></vehicle>
    <vehicle depart="2" departPos="0" departLane="best" arrivalPos="-1" type="private" id="Saffi_10_1"><route edges="12 56[0] 56[1][0] 56[1][1] 5[1][0]+66 5[1][1][1] 8 10"></route></vehicle>
    <vehicle depart="3" departPos="0" departLane="best" arrivalPos="-1" type="private" id="Gandhi_60_2"><route edges="1[0] a1[1] 1[1] 40[0] 40[1]"></route></vehicle>
    <vehicle depart="4" departPos="0" departLane="best" arrivalPos="-1" type="private" id="Gandhi_30_3"><route edges="1[0] 25 23 17[0] 17[1] 11[0] 11[1][1] 70"></route></vehicle>
    <vehicle depart="4" departPos="0" departLane="best" arrivalPos="-1" type="private" id="Malvasia_70_1"><route edges="52 51 56[0] 39[0] 39[1][0] 39[1][1][0] 39[1][1][1] 45 44"></route></vehicle>
    <vehicle depart="4" departPos="0" departLane="best" arrivalPos="-1" type="private" id="Montefiorino_90_1"><route edges="43 81 2[0] 2[1][0] 2[1][1][0] 2[1][1][1] 2[1][1][1]b"></route></vehicle>
    <vehicle depart="4" departPos="0" departLane="best" arrivalPos="-1" type="private" id="Pertini_20_2"><route edges="63[0] 63[1] 4[0] 4[1][1][0] 4[1][1][1]"></route></vehicle>
    <vehicle depart="4" departPos="0" departLane="best" arrivalPos="-1" type="private" id="Prati_Capraia_10_1"><route edges="3[0] 10"></route></vehicle>
    <vehicle depart="5" departPos="0" departLane="best" arrivalPos="-1" type="private" id="Saffi_103_2"><route edges="12 56[0] 56[1][0] 56[1][1] 5[1][0]+66 5[1][1][1] 8 3[1] 3[1]b"></route></vehicle>
    <vehicle depart="6" departPos="0" departLane="best" arrivalPos="-1" type="ignoring" id="Borgo_10_1"><route edges="6 100 7 9 16[0] 30 31 5[1][1][1] 8 10"></route></vehicle>
    <vehicle depart="6" departPos="0" departLane="best" arrivalPos="-1" type="private" id="Gandhi_60_4"><route edges="1[0] a1[1] 1[1] 40[0] 40[1]"></route></vehicle>
    <vehicle depart="6" departPos="0" departLane="best" arrivalPos="-1" type="private" id="Pertini_22_3"><route edges="13[0] 14 17[0] 17[1] 8 4[1][1][1]"></route></vehicle>
    <vehicle depart="7" departPos="0" departLane="best" arrivalPos="-1" type="ignoring" id="Gandhi_52_5"><route edges="1[0] 25 23 17[0] 30 31 11[1][1] 101 35[0] 35[1][0] 35[1][1][0] 20000+35[1][1][1][0] 35[1][1][1][1]"></route></vehicle>
    <vehicle depart="8" departPos="0" departLane="best" arrivalPos="-1" type="private" id="Montefiorino_90_2"><route edges="43 81 2[0] 2[1][0] 2[1][1][0] 2[1][1][1] 2[1][1][1]b"></route></vehicle>
    <vehicle depart="8" departPos="0" departLane="best" arrivalPos="-1" type="private" id="Pertini_23_4"><route edges="13[0] 14 17[0] 29[0] 29[1] 4[1][1][0] 4[1][1][1]"></route></vehicle>
    <vehicle depart="8" departPos="0" departLane="best" arrivalPos="-1" type="private" id="Saffi_70_3"><route edges="12 56[0] 39[0] 39[1][0] 39[1][1][0] 39[1][1][1] 45 44"></route></vehicle>
    <vehicle depart="9" departPos="0" departLane="best" arrivalPos="-1" type="private" id="Gandhi_60_6"><route edges="1[0] a1[1] 1[1] 40[0] 40[1]"></route></vehicle>
    <vehicle depart="9" departPos="0" departLane="best" arrivalPos="-1" type="private" id="Malvasia_100_2"><route edges="52 51 56[0] 56[1][0] 56[1][1] 5[1][0]+66 5[1][1][1] 8 3[1] 3[1]b"></route></vehicle>
    <vehicle depart="9" departPos="0" departLane="best" arrivalPos="-1" type="private" id="Prati_Capraia_100_2"><route edges="3[0] 3[1] 3[1]b"></route></vehicle>
    <vehicle depart="9" departPos="0" departLane="best" arrivalPos="-1" type="private" id="Sabotino_9_1"><route edges="41 42 2[0] 2[1][0] 2[1][1][0] 2[1][1][1] 2[1][1][1]b"></route></vehicle>
    <vehicle depart="10" departPos="0" departLane="best" arrivalPos="-1" type="private" id="Gandhi_60_7"><route edges="1[0] a1[1] 1[1] 40[0] 40[1]"></route></vehicle>
    <vehicle depart="10" departPos="0" departLane="best" arrivalPos="-1" type="private" id="Pertini_62_5"><route edges="63[0] 63[1] 4[0] 28 28a 16[1] 18 20+19a a1[1] 1[1] 40[0] 40[1]"></route></vehicle>
    <vehicle depart="11" departPos="0" departLane="best" arrivalPos="-1" type="private" id="Saffi_30_4"><route edges="12 56[0] 56[1][0] 56[1][1] 70"></route></vehicle>
    <vehicle depart="12" departPos="0" departLane="best" arrivalPos="-1" type="private" id="Borgo_100_2"><route edges="6 100 7 3[1] 3[1]b"></route></vehicle>
    <vehicle depart="12" departPos="0" departLane="best" arrivalPos="-1" type="private" id="Gandhi_60_8"><route edges="1[0] a1[1] 1[1] 40[0] 40[1]"></route></vehicle>
    <vehicle depart="12" departPos="0" departLane="best" arrivalPos="-1" type="private" id="Montefiorino_100_3"><route edges="43 81 2[0] 2[1][0] 24 23 15"></route></vehicle>
    <vehicle depart="12" departPos="0" departLane="best" arrivalPos="-1" type="private" id="Pertini_60_6"><route edges="13[0] 14 18 20+19a a1[1] 1[1] 40[0] 40[1]"></route></vehicle>
    <vehicle depart="14" departPos="0" departLane="best" arrivalPos="-1" type="private" id="Gandhi_60_9"><route edges="1[0] a1[1] 1[1] 40[0] 40[1]"></route></vehicle>
    <vehicle depart="14" departPos="0" departLane="best" arrivalPos="-1" type="private" id="Malvasia_100_3"><route edges="52 51 56[0] 56[1][0] 56[1][1] 5[1][0]+66 5[1][1][1] 8 3[1] 3[1]b"></route></vehicle>
    <vehicle depart="14" departPos="0" departLane="best" arrivalPos="-1" type="private" id="Prati_Capraia_100_3"><route edges="3[0] 3[1] 3[1]b"></route></vehicle>
    <vehicle depart="14" departPos="0" departLane="best" arrivalPos="-1" type="private" id="Saffi_20_5"><route edges="12 56[0] 56[1][0] 56[1][1] 5[1][0]+66 5[1][1][1] 8 4[1][1][1]"></route></vehicle>
    <vehicle depart="15" departPos="0" departLane="best" arrivalPos="-1" type="ignoring" id="Gandhi_50_10"><route edges="1[0] 25 23 17[0] 17[1] 11[0] 11[1][1] 101 35[0] 35[1][0] 35[1][1][0] 20000+35[1][1][1][0] 35[1][1][1][1]"></route></vehicle>
    <vehicle depart="15" departPos="0" departLane="best" arrivalPos="-1" type="private" id="Pertini_20_7"><route edges="63[0] 63[1] 4[0] 4[1][1][0] 4[1][1][1]"></route></vehicle>
    <vehicle depart="16" departPos="0" departLane="best" arrivalPos="-1" type="private" id="Montefiorino_22_4"><route edges="43 81 2[0] 2[1][0] 24 23 17[0] 17[1] 8 4[1][1][1]"></route></vehicle>
    <vehicle depart="17" departPos="0" departLane="best" arrivalPos="-1" type="private" id="Gandhi_80_11"><route edges="1[0] 21"></route></vehicle>
    <vehicle depart="17" departPos="0" departLane="best" arrivalPos="-1" type="private" id="Pertini_30_8"><route edges="13[0] 14 17[0] 30 31 11[1][1] 70"></route></vehicle>
    <vehicle depart="17" departPos="0" departLane="best" arrivalPos="-1" type="private" id="Saffi_103_6"><route edges="12 56[0] 56[1][0] 56[1][1] 5[1][0]+66 5[1][1][1] 8 3[1] 3[1]b"></route></vehicle>
    <vehicle depart="18" departPos="0" departLane="best" arrivalPos="-1" type="private" id="Borgo_20_3"><route edges="6 100 7 4[1][1][1]"></route></vehicle>
    <vehicle depart="18" departPos="0" departLane="best" arrivalPos="-1" type="private" id="Gandhi_40_12"><route edges="1[0] a1[1] 1[1] 38[0] 38[0]a 46 49[0] 49[1] 55 53 53a"></route></vehicle>
    <!--vehicle depart="18" departPos="0" departLane="best" arrivalPos="-1" type="private" id="Nigrisoli_92_3"><route edges="65 67 32 16[1] 18 20+19b 2[1][1][1]b"></route></vehicle-->
    <vehicle depart="18" departPos="0" departLane="best" arrivalPos="-1" type="private" id="Sabotino_9_2"><route edges="41 42 2[0] 2[1][0] 2[1][1][0] 2[1][1][1] 2[1][1][1]b"></route></vehicle>
    <vehicle depart="19" departPos="0" departLane="best" arrivalPos="-1" type="private" id="Malvasia_92_4"><route edges="52 51 56[0] 56[1][0] 34[0] 34[1][0] 34[1][1] 2[1][0] 2[1][1][0] 2[1][1][1] 2[1][1][1]b"></route></vehicle>
    <vehicle depart="19" departPos="0" departLane="best" arrivalPos="-1" type="private" id="Pertini_20_9"><route edges="63[0] 63[1] 4[0] 4[1][1][0] 4[1][1][1]"></route></vehicle>
    <vehicle depart="19" departPos="0" departLane="best" arrivalPos="-1" type="private" id="Prati_Capraia_100_4"><route edges="3[0] 3[1] 3[1]b"></route></vehicle>
    <vehicle depart="20" departPos="0" departLane="best" arrivalPos="-1" type="private" id="Gandhi_40_13"><route edges="1[0] a1[1] 1[1] 38[0] 38[0]a 46 49[0] 49[1] 55 53 53a"></route></vehicle>
    <vehicle depart="20" departPos="0" departLane="best" arrivalPos="-1" type="private" id="Montefiorino_90_5"><route edges="43 81 2[0] 2[1][0] 2[1][1][0] 2[1][1][1] 2[1][1][1]b"></route></vehicle>
    <vehicle depart="20" departPos="0" departLane="best" arrivalPos="-1" type="private" id="Saffi_10_7"><route edges="12 56[0] 56[1][0] 56[1][1] 5[1][0]+66 5[1][1][1] 8 10"></route></vehicle>
    <vehicle depart="21" departPos="0" departLane="best" arrivalPos="-1" type="private" id="Gandhi_40_14"><route edges="1[0] a1[1] 1[1] 38[0] 38[0]a 46 49[0] 49[1] 55 53 53a"></route></vehicle>
    <vehicle depart="21" departPos="0" departLane="best" arrivalPos="-1" type="private" id="Pertini_20_10"><route edges="63[0] 63[1] 4[0] 4[1][1][0] 4[1][1][1]"></route></vehicle>
    <vehicle depart="22" departPos="0" departLane="best" arrivalPos="-1" type="private" id="Saffi_30_8"><route edges="12 56[0] 56[1][0] 56[1][1] 70"></route></vehicle>
    <vehicle depart="23" departPos="0" departLane="best" arrivalPos="-1" type="private" id="Gandhi_60_15"><route edges="1[0] a1[1] 1[1] 40[0] 40[1]"></route></vehicle>
    <vehicle depart="23" departPos="0" departLane="best" arrivalPos="-1" type="private" id="Pertini_20_11"><route edges="63[0] 63[1] 4[0] 4[1][1][0] 4[1][1][1]"></route></vehicle>
    <vehicle depart="24" departPos="0" departLane="best" arrivalPos="-1" type="private" id="Borgo_20_4"><route edges="6 100 7 4[1][1][1]"></route></vehicle>
    <vehicle depart="24" departPos="0" departLane="best" arrivalPos="-1" type="private" id="Malvasia_100_5"><route edges="52 51 56[0] 56[1][0] 56[1][1] 5[1][0]+66 5[1][1][1] 8 3[1] 3[1]b"></route></vehicle>
    <vehicle depart="24" departPos="0" departLane="best" arrivalPos="-1" type="private" id="Montefiorino_90_6"><route edges="43 81 2[0] 2[1][0] 2[1][1][0] 2[1][1][1] 2[1][1][1]b"></route></vehicle>
    <vehicle depart="24" departPos="0" departLane="best" arrivalPos="-1" type="private" id="Prati_Capraia_100_5"><route edges="3[0] 3[1] 3[1]b"></route></vehicle>
    <vehicle depart="25" departPos="0" departLane="best" arrivalPos="-1" type="private" id="Gandhi_60_16"><route edges="1[0] a1[1] 1[1] 40[0] 40[1]"></route></vehicle>
    <vehicle depart="25" departPos="0" departLane="best" arrivalPos="-1" type="private" id="Pertini_20_12"><route edges="63[0] 63[1] 4[0] 4[1][1][0] 4[1][1][1]"></route></vehicle>
    <vehicle depart="25" departPos="0" departLane="best" arrivalPos="-1" type="private" id="Saffi_70_9"><route edges="12 56[0] 39[0] 39[1][0] 39[1][1][0] 39[1][1][1] 45 44"></route></vehicle>
    <vehicle depart="26" departPos="0" departLane="best" arrivalPos="-1" type="private" id="Gandhi_60_17"><route edges="1[0] a1[1] 1[1] 40[0] 40[1]"></route></vehicle>
    <vehicle depart="27" departPos="0" departLane="best" arrivalPos="-1" type="private" id="Pertini_22_13"><route edges="13[0] 14 17[0] 17[1] 8 4[1][1][1]"></route></vehicle>
    <vehicle depart="27" departPos="0" departLane="best" arrivalPos="-1" type="private" id="Sabotino_9_3"><route edges="41 42 2[0] 2[1][0] 2[1][1][0] 2[1][1][1] 2[1][1][1]b"></route></vehicle>
    <vehicle depart="28" departPos="0" departLane="best" arrivalPos="-1" type="private" id="Gandhi_60_18"><route edges="1[0] a1[1] 1[1] 40[0] 40[1]"></route></vehicle>
    <vehicle depart="28" departPos="0" departLane="best" arrivalPos="-1" type="private" id="Montefiorino_60_7"><route edges="43 81 40[0] 40[1]"></route></vehicle>
    <vehicle depart="28" departPos="0" departLane="best" arrivalPos="-1" type="private" id="Saffi_103_10"><route edges="12 56[0] 56[1][0] 56[1][1] 5[1][0]+66 5[1][1][1] 8 3[1] 3[1]b"></route></vehicle>
    <vehicle depart="29" departPos="0" departLane="best" arrivalPos="-1" type="private" id="Gandhi_40_19"><route edges="1[0] a1[1] 1[1] 38[0] 38[0]a 46 49[0] 49[1] 55 53 53a"></route></vehicle>
    <vehicle depart="29" departPos="0" departLane="best" arrivalPos="-1" type="private" id="Malvasia_10_6"><route edges="52 51 56[0] 56[1][0] 56[1][1] 5[1][0]+66 5[1][1][1] 8 10"></route></vehicle>
    <vehicle depart="29" departPos="0" departLane="best" arrivalPos="-1" type="ignoring" id="Prati_Capraia_30_6"><route edges="3[0] 9 11[0] 11[1][1] 70"></route></vehicle>
    <vehicle depart="30" departPos="0" departLane="best" arrivalPos="-1" type="private" id="Pertini_20_14"><route edges="63[0] 63[1] 4[0] 4[1][1][0] 4[1][1][1]"></route></vehicle>
    <vehicle depart="31" departPos="0" departLane="best" arrivalPos="-1" type="private" id="Gandhi_60_20"><route edges="1[0] a1[1] 1[1] 40[0] 40[1]"></route></vehicle>
    <vehicle depart="31" departPos="0" departLane="best" arrivalPos="-1" type="private" id="Saffi_103_11"><route edges="12 56[0] 56[1][0] 56[1][1] 5[1][0]+66 5[1][1][1] 8 3[1] 3[1]b"></route></vehicle>
    <vehicle depart="32" departPos="0" departLane="best" arrivalPos="-1" type="private" id="Pertini_20_15"><route edges="63[0] 63[1] 4[0] 4[1][1][0] 4[1][1][1]"></route></vehicle>
    <vehicle depart="33" departPos="0" departLane="best" arrivalPos="-1" type="private" id="Montefiorino_80_8"><route edges="43 81 2[0] 2[1][0] 2[1][1][0] 21"></route></vehicle>
    <vehicle depart="34" departPos="0" departLane="best" arrivalPos="-1" type="private" id="Gandhi_60_22"><route edges="1[0] a1[1] 1[1] 40[0] 40[1]"></route></vehicle>
    <vehicle depart="34" departPos="0" departLane="best" arrivalPos="-1" type="private" id="Malvasia_100_7"><route edges="52 51 56[0] 56[1][0] 56[1][1] 5[1][0]+66 5[1][1][1] 8 3[1] 3[1]b"></route></vehicle>
    <vehicle depart="34" departPos="0" departLane="best" arrivalPos="-1" type="private" id="Pertini_20_16"><route edges="63[0] 63[1] 4[0] 4[1][1][0] 4[1][1][1]"></route></vehicle>
    <vehicle depart="34" departPos="0" departLane="best" arrivalPos="-1" type="private" id="Prati_Capraia_10_7"><route edges="3[0] 10"></route></vehicle>
    <vehicle depart="34" departPos="0" departLane="best" arrivalPos="-1" type="private" id="Saffi_90_12"><route edges="12 56[0] 39[0] 39[1][0] 39[1][1][0] 39[1][1][1] 45 2[0] 2[1][0] 2[1][1][0] 2[1][1][1] 2[1][1][1]b"></route></vehicle>
    <vehicle depart="35" departPos="0" departLane="best" arrivalPos="-1" type="private" id="Gandhi_40_23"><route edges="1[0] a1[1] 1[1] 38[0] 38[0]a 46 49[0] 49[1] 55 53 53a"></route></vehicle>
    <vehicle depart="36" departPos="0" departLane="best" arrivalPos="-1" type="private" id="Borgo_20_6"><route edges="6 100 7 4[1][1][1]"></route></vehicle>
    <vehicle depart="36" departPos="0" departLane="best" arrivalPos="-1" type="private" id="Certosa_6_1"><route edges="22[0] 22[1] a1[1] 1[1] 40[0] 40[1]"></route></vehicle>
    <vehicle depart="36" departPos="0" departLane="best" arrivalPos="-1" type="private" id="Pertini_20_17"><route edges="63[0] 63[1] 4[0] 4[1][1][0] 4[1][1][1]"></route></vehicle>
    <vehicle depart="36" departPos="0" departLane="best" arrivalPos="-1" type="private" id="Sabotino_9_4"><route edges="41 42 2[0] 2[1][0] 2[1][1][0] 2[1][1][1] 2[1][1][1]b"></route></vehicle>
    <vehicle depart="37" departPos="0" departLane="best" arrivalPos="-1" type="private" id="Gandhi_60_24"><route edges="1[0] a1[1] 1[1] 40[0] 40[1]"></route></vehicle>
    <vehicle depart="37" departPos="0" departLane="best" arrivalPos="-1" type="private" id="Montefiorino_23_9"><route edges="43 81 38[0] 38[0]a 38[1][0] 38[1][1] 38[1][1]a 56[1][0] 56[1][1] 5[1][0]+66 5[1][1][1] 8 4[1][1][1]"></route></vehicle>
    <vehicle depart="37" departPos="0" departLane="best" arrivalPos="-1" type="ignoring" id="Nigrisoli_50_6"><route edges="65 101 35[0] 35[1][0] 35[1][1][0] 20000+35[1][1][1][0] 35[1][1][1][1]"></route></vehicle>
    <vehicle depart="37" departPos="0" departLane="best" arrivalPos="-1" type="private" id="Saffi_10_13"><route edges="12 56[0] 56[1][0] 56[1][1] 5[1][0]+66 5[1][1][1] 8 10"></route></vehicle>
    <vehicle depart="38" departPos="0" departLane="best" arrivalPos="-1" type="private" id="Malvasia_94_8"><route edges="52 51 50[0] 97 39[1][0] 39[1][1][0] 39[1][1][1] 45 2[0] 2[1][0] 2[1][1][0] 2[1][1][1] 2[1][1][1]b"></route></vehicle>
    <vehicle depart="38" departPos="0" departLane="best" arrivalPos="-1" type="private" id="Pertini_20_18"><route edges="63[0] 63[1] 4[0] 4[1][1][0] 4[1][1][1]"></route></vehicle>
    <vehicle depart="38" departPos="0" departLane="best" arrivalPos="-1" type="private" id="Prati_Capraia_100_8"><route edges="3[0] 3[1] 3[1]b"></route></vehicle>
    <vehicle depart="39" departPos="0" departLane="best" arrivalPos="-1" type="private" id="Gandhi_60_25"><route edges="1[0] a1[1] 1[1] 40[0] 40[1]"></route></vehicle>
    <vehicle depart="40" departPos="0" departLane="best" arrivalPos="-1" type="private" id="Gandhi_40_26"><route edges="1[0] a1[1] 1[1] 38[0] 38[0]a 46 49[0] 49[1] 55 53 53a"></route></vehicle>
    <vehicle depart="40" departPos="0" departLane="best" arrivalPos="-1" type="private" id="Pertini_20_19"><route edges="63[0] 63[1] 4[0] 4[1][1][0] 4[1][1][1]"></route></vehicle>
    <vehicle depart="40" departPos="0" departLane="best" arrivalPos="-1" type="private" id="Saffi_30_14"><route edges="12 56[0] 56[1][0] 56[1][1] 70"></route></vehicle>
    <vehicle depart="41" departPos="0" departLane="best" arrivalPos="-1" type="private" id="Montefiorino_22_10"><route edges="43 81 2[0] 2[1][0] 24 23 17[0] 17[1] 8 4[1][1][1]"></route></vehicle>
    <vehicle depart="42" departPos="0" departLane="best" arrivalPos="-1" type="private" id="Borgo_20_7"><route edges="6 100 7 4[1][1][1]"></route></vehicle>
    <vehicle depart="42" departPos="0" departLane="best" arrivalPos="-1" type="private" id="Gandhi_60_27"><route edges="1[0] a1[1] 1[1] 40[0] 40[1]"></route></vehicle>
    <vehicle depart="42" departPos="0" departLane="best" arrivalPos="-1" type="private" id="Saffi_103_15"><route edges="12 56[0] 56[1][0] 56[1][1] 5[1][0]+66 5[1][1][1] 8 3[1] 3[1]b"></route></vehicle>
    <vehicle depart="43" departPos="0" departLane="best" arrivalPos="-1" type="private" id="Gandhi_60_28"><route edges="1[0] a1[1] 1[1] 40[0] 40[1]"></route></vehicle>
    <vehicle depart="43" departPos="0" departLane="best" arrivalPos="-1" type="private" id="Malvasia_100_9"><route edges="52 51 56[0] 56[1][0] 56[1][1] 5[1][0]+66 5[1][1][1] 8 3[1] 3[1]b"></route></vehicle>
    <vehicle depart="43" departPos="0" departLane="best" arrivalPos="-1" type="private" id="Nigrisoli_90_7"><route edges="65 5[1][0]+66 5[1][1][1] 16[0] 16[1] 18 20+19b 2[1][1][1]b"></route></vehicle>
    <vehicle depart="43" departPos="0" departLane="best" arrivalPos="-1" type="private" id="Pertini_10_20"><route edges="63[0] 63[1] 4[0] 4[1][1][0] 10"></route></vehicle>
    <vehicle depart="43" departPos="0" departLane="best" arrivalPos="-1" type="private" id="Prati_Capraia_100_9"><route edges="3[0] 3[1] 3[1]b"></route></vehicle>
    <vehicle depart="45" departPos="0" departLane="best" arrivalPos="-1" type="private" id="Gandhi_40_29"><route edges="1[0] a1[1] 1[1] 38[0] 38[0]a 46 49[0] 49[1] 55 53 53a"></route></vehicle>
    <vehicle depart="45" departPos="0" departLane="best" arrivalPos="-1" type="private" id="Montefiorino_90_11"><route edges="43 81 2[0] 2[1][0] 2[1][1][0] 2[1][1][1] 2[1][1][1]b"></route></vehicle>
    <vehicle depart="45" departPos="0" departLane="best" arrivalPos="-1" type="private" id="Pertini_20_21"><route edges="63[0] 63[1] 4[0] 4[1][1][0] 4[1][1][1]"></route></vehicle>
    <vehicle depart="45" departPos="0" departLane="best" arrivalPos="-1" type="private" id="Sabotino_9_5"><route edges="41 42 2[0] 2[1][0] 2[1][1][0] 2[1][1][1] 2[1][1][1]b"></route></vehicle>
    <vehicle depart="45" departPos="0" departLane="best" arrivalPos="-1" type="private" id="Saffi_20_16"><route edges="12 56[0] 56[1][0] 56[1][1] 5[1][0]+66 5[1][1][1] 8 4[1][1][1]"></route></vehicle>
    <vehicle depart="46" departPos="0" departLane="best" arrivalPos="-1" type="private" id="Gandhi_40_30"><route edges="1[0] a1[1] 1[1] 38[0] 38[0]a 46 49[0] 49[1] 55 53 53a"></route></vehicle>
    <vehicle depart="47" departPos="0" departLane="best" arrivalPos="-1" type="private" id="Pertini_20_22"><route edges="63[0] 63[1] 4[0] 4[1][1][0] 4[1][1][1]"></route></vehicle>
    <vehicle depart="48" departPos="0" departLane="best" arrivalPos="-1" type="private" id="Borgo_100_8"><route edges="6 100 7 3[1] 3[1]b"></route></vehicle>
    <vehicle depart="48" departPos="0" departLane="best" arrivalPos="-1" type="private" id="Gandhi_60_31"><route edges="1[0] a1[1] 1[1] 40[0] 40[1]"></route></vehicle>
    <vehicle depart="48" departPos="0" departLane="best" arrivalPos="-1" type="private" id="Malvasia_100_10"><route edges="52 51 56[0] 56[1][0] 56[1][1] 5[1][0]+66 5[1][1][1] 8 3[1] 3[1]b"></route></vehicle>
    <vehicle depart="48" departPos="0" departLane="best" arrivalPos="-1" type="private" id="Prati_Capraia_100_10"><route edges="3[0] 3[1] 3[1]b"></route></vehicle>
    <vehicle depart="48" departPos="0" departLane="best" arrivalPos="-1" type="private" id="Saffi_103_17"><route edges="12 56[0] 56[1][0] 56[1][1] 5[1][0]+66 5[1][1][1] 8 3[1] 3[1]b"></route></vehicle>
    <vehicle depart="49" departPos="0" departLane="best" arrivalPos="-1" type="private" id="Montefiorino_22_12"><route edges="43 81 2[0] 2[1][0] 24 23 17[0] 17[1] 8 4[1][1][1]"></route></vehicle>
    <vehicle depart="49" departPos="0" departLane="best" arrivalPos="-1" type="private" id="Pertini_60_23"><route edges="13[0] 14 18 20+19a a1[1] 1[1] 40[0] 40[1]"></route></vehicle>
    <vehicle depart="50" departPos="0" departLane="best" arrivalPos="-1" type="private" id="Gandhi_70_32"><route edges="1[0] a1[1] 1[1] 44"></route></vehicle>
    <vehicle depart="51" departPos="0" departLane="best" arrivalPos="-1" type="private" id="Gandhi_60_33"><route edges="1[0] a1[1] 1[1] 40[0] 40[1]"></route></vehicle>
    <vehicle depart="51" departPos="0" departLane="best" arrivalPos="-1" type="private" id="Pertini_102_24"><route edges="13[0] 14 17[0] 29[0]"></route></vehicle>
    <vehicle depart="51" departPos="0" departLane="best" arrivalPos="-1" type="private" id="Saffi_20_18"><route edges="12 56[0] 56[1][0] 56[1][1] 5[1][0]+66 5[1][1][1] 8 4[1][1][1]"></route></vehicle>
    <vehicle depart="53" departPos="0" departLane="best" arrivalPos="-1" type="ignoring" id="Gandhi_42_34"><route edges="1[0] 25 23 27 36 46 49[0] 49[1] 55 53 53a"></route></vehicle>
    <vehicle depart="53" departPos="0" departLane="best" arrivalPos="-1" type="private" id="Malvasia_100_11"><route edges="52 51 56[0] 56[1][0] 56[1][1] 5[1][0]+66 5[1][1][1] 8 3[1] 3[1]b"></route></vehicle>
    <vehicle depart="53" departPos="0" departLane="best" arrivalPos="-1" type="private" id="Montefiorino_90_13"><route edges="43 81 2[0] 2[1][0] 2[1][1][0] 2[1][1][1] 2[1][1][1]b"></route></vehicle>
    <vehicle depart="53" departPos="0" departLane="best" arrivalPos="-1" type="private" id="Pertini_20_25"><route edges="63[0] 63[1] 4[0] 4[1][1][0] 4[1][1][1]"></route></vehicle>
    <vehicle depart="53" departPos="0" departLane="best" arrivalPos="-1" type="private" id="Prati_Capraia_100_11"><route edges="3[0] 3[1] 3[1]b"></route></vehicle>
    <vehicle depart="54" departPos="0" departLane="best" arrivalPos="-1" type="private" id="Borgo_20_9"><route edges="6 100 7 4[1][1][1]"></route></vehicle>
    <vehicle depart="54" departPos="0" departLane="best" arrivalPos="-1" type="private" id="Gandhi_60_35"><route edges="1[0] a1[1] 1[1] 40[0] 40[1]"></route></vehicle>
    <vehicle depart="54" departPos="0" departLane="best" arrivalPos="-1" type="private" id="Sabotino_9_6"><route edges="41 42 2[0] 2[1][0] 2[1][1][0] 2[1][1][1] 2[1][1][1]b"></route></vehicle>
    <vehicle depart="54" departPos="0" departLane="best" arrivalPos="-1" type="private" id="Saffi_103_19"><route edges="12 56[0] 56[1][0] 56[1][1] 5[1][0]+66 5[1][1][1] 8 3[1] 3[1]b"></route></vehicle>
    <vehicle depart="55" departPos="0" departLane="best" arrivalPos="-1" type="private" id="Pertini_20_26"><route edges="63[0] 63[1] 4[0] 4[1][1][0] 4[1][1][1]"></route></vehicle>
    <vehicle depart="56" departPos="0" departLane="best" arrivalPos="-1" type="private" id="Gandhi_60_36"><route edges="1[0] a1[1] 1[1] 40[0] 40[1]"></route></vehicle>
    <vehicle depart="57" departPos="0" departLane="best" arrivalPos="-1" type="private" id="Gandhi_60_37"><route edges="1[0] a1[1] 1[1] 40[0] 40[1]"></route></vehicle>
    <vehicle depart="57" departPos="0" departLane="best" arrivalPos="-1" type="private" id="Montefiorino_90_14"><route edges="43 81 2[0] 2[1][0] 2[1][1][0] 2[1][1][1] 2[1][1][1]b"></route></vehicle>
    <vehicle depart="57" departPos="0" departLane="best" arrivalPos="-1" type="private" id="Saffi_30_20"><route edges="12 56[0] 56[1][0] 56[1][1] 70"></route></vehicle>
    <vehicle depart="58" departPos="0" departLane="best" arrivalPos="-1" type="private" id="Malvasia_94_12"><route edges="52 51 50[0] 97 39[1][0] 39[1][1][0] 39[1][1][1] 45 2[0] 2[1][0] 2[1][1][0] 2[1][1][1] 2[1][1][1]b"></route></vehicle>
    <vehicle depart="58" departPos="0" departLane="best" arrivalPos="-1" type="private" id="Pertini_20_27"><route edges="63[0] 63[1] 4[0] 4[1][1][0] 4[1][1][1]"></route></vehicle>
    <vehicle depart="58" departPos="0" departLane="best" arrivalPos="-1" type="private" id="Prati_Capraia_100_12"><route edges="3[0] 3[1] 3[1]b"></route></vehicle>
    <vehicle depart="59" departPos="0" departLane="best" arrivalPos="-1" type="private" id="Gandhi_60_38"><route edges="1[0] a1[1] 1[1] 40[0] 40[1]"></route></vehicle>
    <vehicle depart="60" departPos="0" departLane="best" arrivalPos="-1" type="ignoring" id="Borgo_10_10"><route edges="6 100 7 9 16[0] 30 31 5[1][1][1] 8 10"></route></vehicle>
    <vehicle depart="60" departPos="0" departLane="best" arrivalPos="-1" type="private" id="Gandhi_60_39"><route edges="1[0] a1[1] 1[1] 40[0] 40[1]"></route></vehicle>
    <vehicle depart="60" departPos="0" departLane="best" arrivalPos="-1" type="private" id="Pertini_20_28"><route edges="63[0] 63[1] 4[0] 4[1][1][0] 4[1][1][1]"></route></vehicle>
    <vehicle depart="60" departPos="0" departLane="best" arrivalPos="-1" type="private" id="Saffi_93_21"><route edges="12 56[0] 56[1][0] 56[1][1] 5[1][0]+66 5[1][1][1] 16[0] 16[1] 18 20+19b 2[1][1][1]b"></route></vehicle>
    <vehicle depart="62" departPos="0" departLane="best" arrivalPos="-1" type="ignoring" id="Gandhi_52_40"><route edges="1[0] 25 23 17[0] 30 31 11[1][1] 101 35[0] 35[1][0] 35[1][1][0] 20000+35[1][1][1][0] 35[1][1][1][1]"></route></vehicle>
    <vehicle depart="62" departPos="0" departLane="best" arrivalPos="-1" type="private" id="Montefiorino_90_15"><route edges="43 81 2[0] 2[1][0] 2[1][1][0] 2[1][1][1] 2[1][1][1]b"></route></vehicle>
    <vehicle depart="62" departPos="0" departLane="best" arrivalPos="-1" type="private" id="Pertini_60_29"><route edges="13[0] 14 18 20+19a a1[1] 1[1] 40[0] 40[1]"></route></vehicle>
    <vehicle depart="63" departPos="0" departLane="best" arrivalPos="-1" type="private" id="Malvasia_100_13"><route edges="52 51 56[0] 56[1][0] 56[1][1] 5[1][0]+66 5[1][1][1] 8 3[1] 3[1]b"></route></vehicle>
    <vehicle depart="63" departPos="0" departLane="best" arrivalPos="-1" type="private" id="Prati_Capraia_100_13"><route edges="3[0] 3[1] 3[1]b"></route></vehicle>
    <vehicle depart="63" departPos="0" departLane="best" arrivalPos="-1" type="private" id="Sabotino_9_7"><route edges="41 42 2[0] 2[1][0] 2[1][1][0] 2[1][1][1] 2[1][1][1]b"></route></vehicle>
    <vehicle depart="63" departPos="0" departLane="best" arrivalPos="-1" type="private" id="Saffi_10_22"><route edges="12 56[0] 56[1][0] 56[1][1] 5[1][0]+66 5[1][1][1] 8 10"></route></vehicle>
    <vehicle depart="64" departPos="0" departLane="best" arrivalPos="-1" type="private" id="Gandhi_60_41"><route edges="1[0] a1[1] 1[1] 40[0] 40[1]"></route></vehicle>
    <vehicle depart="64" departPos="0" departLane="best" arrivalPos="-1" type="private" id="Pertini_20_30"><route edges="63[0] 63[1] 4[0] 4[1][1][0] 4[1][1][1]"></route></vehicle>
    <vehicle depart="65" departPos="0" departLane="best" arrivalPos="-1" type="private" id="Gandhi_60_42"><route edges="1[0] a1[1] 1[1] 40[0] 40[1]"></route></vehicle>