<?xml version="1.0" encoding="UTF-8"?>

<!-- generated on Wed Apr 21 14:58:39 2021 by Eclipse SUMO duarouter Version 1.7.0
<configuration xmlns:xsi="http://www.w3.org/2001/XMLSchema-instance" xsi:noNamespaceSchemaLocation="http://sumo.dlr.de/xsd/duarouterConfiguration.xsd">

    <input>
        <net-file value="/home/yoshida/carla/Co-Simulation/Sumo/osm_web_wizard/2021-04-21-14-58-28/osm.net.xml"/>
        <route-files value="/home/yoshida/carla/Co-Simulation/Sumo/osm_web_wizard/2021-04-21-14-58-28/osm.passenger.trips.xml"/>
    </input>

    <output>
        <output-file value="routes.rou.xml"/>
        <alternatives-output value="routes.rou.alt.xml"/>
    </output>

    <time>
        <begin value="0"/>
        <end value="3600"/>
    </time>

    <report>
        <no-warnings value="true"/>
        <ignore-errors value="true"/>
        <no-step-log value="true"/>
    </report>

</configuration>
-->

<routes xmlns:xsi="http://www.w3.org/2001/XMLSchema-instance" xsi:noNamespaceSchemaLocation="http://sumo.dlr.de/xsd/routes_file.xsd">
    <vType id="veh_passenger" vClass="passenger"/>
    <vehicle id="veh0" type="veh_passenger" depart="0.00" departLane="best">
        <route edges="24997595#1 -24997595#1 -24997595#0 389101373#0 389101373#1 389101373#2 23755961#0 23755961#1 23755961#2 4611711#0 4611711#1 -4611713#1 4611708#3 -147066248#8 -147066248#7 -147066248#6"/>
    </vehicle>
    <vehicle id="veh1" type="veh_passenger" depart="27.63" departLane="best" departSpeed="max">
        <route edges="-4611696#5 -4611696#4 -4611696#3 -23755950#4 -23755950#1 -23755950#0 -66071366#4 -66071366#2 -66071366#1 -66071366#0 -389101365#4 -389101365#2 22972473#0 -840229275 -840229276#0 -4588219#0"/>
    </vehicle>
    <vehicle id="veh2" type="veh_passenger" depart="55.26" departLane="best" departSpeed="max">
        <route edges="4588219#0 4588219#1 840229276#1 22972473#3 22972473#4 22972473#5 389101373#0 389101373#1 389101373#2 23755961#0 23755961#1 35557161#5 35557161#6"/>
    </vehicle>
    <vehicle id="veh3" type="veh_passenger" depart="82.89" departLane="best">
        <route edges="-35557161#2 4611708#0 4611708#1 4611708#2 4611713#1 4611714#0 -4611718#1 -4611718#0 15973619#9"/>
    </vehicle>
    <vehicle id="veh4" type="veh_passenger" depart="110.51" departLane="best">
        <route edges="-147066248#7 147066248#7 147066248#8 -4611708#3 -4611708#2 -4611708#1 -4611708#0 35557161#2 -35557161#2"/>
    </vehicle>
    <vehicle id="veh5" type="veh_passenger" depart="138.14" departLane="best" departSpeed="max">
        <route edges="292429056#0 35557143#1 22972473#0 22972473#3 22972473#4 22972473#5 22972470#1"/>
    </vehicle>
    <vehicle id="veh6" type="veh_passenger" depart="165.77" departLane="best">
        <route edges="-35557161#3 -35557161#2 -35557161#1 -35557161#0 66071366#0 66071366#1 66071366#2 66071366#3 23755950#0 23755950#1"/>
    </vehicle>
    <vehicle id="veh7" type="veh_passenger" depart="193.40" departLane="best" departSpeed="max">
        <route edges="4611706#0 4611706#1 66071366#0 66071366#1 66071366#2 66071366#3 23755950#0 23755950#1 23755950#2 -831860725#2 734578686 15973619#1 15973619#2 15973619#3 15973619#4 15973619#5 15973619#6 15973619#7 15973619#8 4611718#0 147066248#0 147066248#1 -147066248#1"/>
    </vehicle>
    <vehicle id="veh8" type="veh_passenger" depart="221.03" departLane="best" departSpeed="max">
        <route edges="4611706#0 4611706#1 35557161#0 35557161#1 35557161#2 35557161#3 35557161#4 -23755961#1 -23755961#0 389101374 766868095#1 766868095#2 389101373#0"/>
    </vehicle>
    <vehicle id="veh9" type="veh_passenger" depart="248.66" departLane="best">
        <route edges="-4611713#0 -66071366#4 -66071366#2 -66071366#1 -66071366#0 -389101365#4 -389101365#2 -35557143#4 -292429056#3"/>
    </vehicle>
    <vehicle id="veh10" type="veh_passenger" depart="276.28" departLane="best">
        <route edges="66071366#3 4611713#0 4611713#1 4611714#0 4611714#2 4611714#3 4611714#4 4611714#5 4611714#6 4611714#7 4611714#8 -4611714#8"/>
    </vehicle>
    <vehicle id="veh11" type="veh_passenger" depart="303.91" departLane="best" departSpeed="max">
        <route edges="4611706#0 4611706#1 66071366#0 66071366#1 66071366#2 66071366#3 23755950#0 23755950#1 23755950#2 4611696#1 4611696#4 4611696#5"/>
    </vehicle>
    <vehicle id="veh12" type="veh_passenger" depart="331.54" departLane="best" departSpeed="max">
        <route edges="-4611714#9 -4611714#8 -4611714#7 -4611714#6 -4611714#5 -4611714#4 -4611714#3 -4611714#2 -4611714#0 -4611711#1 -4611711#0 -23755961#2 -23755961#1 -23755961#0 389101374 766868095#1 766868095#2 22972470#1"/>
    </vehicle>
    <vehicle id="veh13" type="veh_passenger" depart="359.17" departLane="best">
        <route edges="4611708#3 4611708#4 831860725#0 -23755950#4 -23755950#1 -23755950#0 -66071366#4 -66071366#2 -66071366#1 -66071366#0 -389101365#4 -389101365#2 243854725#0 243854725#3"/>
    </vehicle>
    <vehicle id="veh14" type="veh_passenger" depart="386.80" departLane="best">
        <route edges="35557161#5 -35557161#5 23755961#2 4611711#0 4611711#1 4611714#0 -4611718#1 -4611718#0 15973619#9 15973619#10 15973619#11 -15973619#11"/>
    </vehicle>
    <vehicle id="veh15" type="veh_passenger" depart="414.43" departLane="best">
        <route edges="-15973619#6 -15973619#5 -15973619#4 -15973619#3 -15973619#2 -15973619#1 -15973619#0 831860725#0 -23755950#4 -23755950#1 -23755950#0 -66071366#4 -66071366#2 -66071366#1 -66071366#0 -389101365#4 -389101365#2 22972473#0 -840229275 -840229276#0 -4588219#0"/>
    </vehicle>
    <vehicle id="veh16" type="veh_passenger" depart="442.05" departLane="best" departSpeed="max">
        <route edges="-22972470#1 389101373#0 389101373#1 389101373#2 23755961#0 23755961#1 23755961#2 4611711#0 4611711#1 -4611713#1 -4611708#2"/>
    </vehicle>
    <vehicle id="veh17" type="veh_passenger" depart="469.68" departLane="best">
        <route edges="24997595#0 -24997595#0 -22972473#5 -22972473#4 -22972473#3 -22972473#2 389101365#0 389101365#3 66071366#0 66071366#1 66071366#2 66071366#3 -66071370"/>
    </vehicle>
    <vehicle id="veh18" type="veh_passenger" depart="497.31" departLane="best">
        <route edges="-4611714#7 -4611714#6 -4611714#5 -4611714#4 -4611714#3 -4611714#2 -4611714#0 -4611711#1 -4611711#0 -23755961#2 35557161#5 -35557161#5"/>
    </vehicle>
    <vehicle id="veh19" type="veh_passenger" depart="524.94" departLane="best" departSpeed="max">
        <route edges="-4611696#5 -4611696#4 -4611696#3 -23755950#4 -23755950#1 -23755950#0 -66071366#4 -66071366#2 -66071366#1 -66071366#0 -389101365#4 -389101365#2 22972473#0 22972473#3 22972473#4 22972473#5 24997595#0 24997595#1 47707170#0 47707170#1 47707170#3 47707170#4 47707170#5 47707170#6 47707170#7 47755711"/>
    </vehicle>
    <vehicle id="veh20" type="veh_passenger" depart="552.57" departLane="best" departSpeed="max">
        <route edges="292429056#0 35557143#1 243854725#0"/>
    </vehicle>
    <vehicle id="veh21" type="veh_passenger" depart="580.20" departLane="best" departSpeed="max">
        <route edges="-243854725#3 -243854725#2 389101365#0 389101365#3 66071366#0 66071366#1 66071366#2 66071366#3 23755950#0 23755950#1 23755950#2 4611696#1 4611696#4 4611696#5"/>
    </vehicle>
    <vehicle id="veh22" type="veh_passenger" depart="607.82" departLane="best">
        <route edges="-23755961#2 -35557161#4 -35557161#3 -35557161#2 -35557161#1 -35557161#0 66071366#0 66071366#1 66071366#2 66071366#3 -66071370"/>
    </vehicle>
    <vehicle id="veh23" type="veh_passenger" depart="635.45" departLane="best">
        <route edges="831860725#0 -23755950#4 -23755950#1 -23755950#0 -66071366#4 -66071366#2 -66071366#1 -66071366#0 -389101365#4 -389101365#2 22972473#0 22972473#3 22972473#4 22972473#5 24997595#0 24997595#1"/>
    </vehicle>
    <vehicle id="veh24" type="veh_passenger" depart="663.08" departLane="best" departSpeed="max">
        <route edges="171423001#0 171423001#1 171423001#2 35557143#1 389101365#0 389101365#3 35557161#0 35557161#1 35557161#2 35557161#3 35557161#4 35557161#5 35557161#6"/>
    </vehicle>
    <vehicle id="veh25" type="veh_passenger" depart="690.71" departLane="best">
        <route edges="-35557161#5 23755961#2 4611711#0 4611711#1 -4611713#1 4611708#3 -147066248#8"/>
    </vehicle>
    <vehicle id="veh26" type="veh_passenger" depart="718.34" departLane="best">
        <route edges="-35557161#0 -389101365#4 -389101365#2 22972473#0 22972473#3 22972473#4 22972473#5 24997595#0 24997595#1 47707170#0 47707170#1 47707170#3 47707170#4 47707170#5 47707170#6 47707170#7 47755711"/>
    </vehicle>
    <vehicle id="veh27" type="veh_passenger" depart="745.97" departLane="best">
        <route edges="47707170#7 47755711 -47755711 47707171#0 47707171#1 47707171#2 47707171#4 47707171#5 47707171#6 47707171#7 -24997595#1 -24997595#0 389101373#0 389101373#1 389101373#2 23755961#0 23755961#1 23755961#2 4611711#0 4611711#1 4611714#0 -4611718#1 -4611718#0 15973619#9 15973619#10 15973619#11 15973619#12"/>
    </vehicle>
    <vehicle id="veh28" type="veh_passenger" depart="773.60" departLane="best" departSpeed="max">
        <route edges="-4611696#5 -4611696#4 -4611696#3 -23755950#4 -23755950#1 -23755950#0 -66071366#4 -66071366#2 -66071366#1 -66071366#0 -4611706#1 -4611706#0"/>
    </vehicle>
    <vehicle id="veh29" type="veh_passenger" depart="801.22" departLane="best">
        <route edges="-4611718#1 -4611718#0 -15973619#8 -15973619#7 -15973619#6 -15973619#5 -15973619#4 -15973619#3 -15973619#2 -15973619#1 -15973619#0 831860725#0 -23755950#4 -23755950#1 -23755950#0 -66071366#4 -66071366#2 -66071366#1 -66071366#0 -389101365#4"/>
    </vehicle>
    <vehicle id="veh30" type="veh_passenger" depart="828.85" departLane="best" departSpeed="max">
        <route edges="-22972470#1 -22972473#5 -22972473#4 -22972473#3 -22972473#2 243854725#0 243854725#3"/>
    </vehicle>
    <vehicle id="veh31" type="veh_passenger" depart="856.48" departLane="best" departSpeed="max">
        <route edges="-15973619#12 -15973619#11 -15973619#10 -15973619#9 -15973619#8 -15973619#7 -15973619#6 -15973619#5 -15973619#4 -15973619#3 -15973619#2 -15973619#1 -15973619#0 831860725#0 -23755950#4 -23755950#1 -23755950#0 -66071370"/>
    </vehicle>
    <vehicle id="veh32" type="veh_passenger" depart="884.11" departLane="best" departSpeed="max">
        <route edges="66071370 -66071366#4 -66071366#2 -66071366#1 -66071366#0 -389101365#4 -389101365#2 22972473#0 22972473#3 22972473#4 22972473#5 24997595#0 24997595#1 47707170#0 47707170#1"/>
    </vehicle>
    <vehicle id="veh33" type="veh_passenger" depart="911.74" departLane="best" departSpeed="max">
        <route edges="-4611696#5 -4611696#4 -4611696#3 -23755950#4 -23755950#1 -23755950#0 -66071366#4 -66071366#2 -66071366#1 -66071366#0 -389101365#4 -389101365#2 22972473#0 22972473#3 22972473#4 22972473#5 24997595#0 24997595#1"/>
    </vehicle>
    <vehicle id="veh34" type="veh_passenger" depart="939.37" departLane="best" departSpeed="max">
        <route edges="-22972470#1 389101373#0 389101373#1 389101373#2 23755961#0 23755961#1 23755961#2 4611711#0 4611711#1 -4611713#1 4611708#3 -147066248#8 -147066248#7 -147066248#6 -147066248#5 147066248#5"/>
    </vehicle>
    <vehicle id="veh35" type="veh_passenger" depart="966.99" departLane="best">
        <route edges="4611714#6 -4611714#6 -4611714#5 -4611714#4 -4611714#3 -4611714#2 -4611714#0 -4611713#1 -4611713#0 -66071366#4 -66071366#2 -66071366#1 -66071366#0 -4611706#1 -4611706#0"/>
    </vehicle>
    <vehicle id="veh36" type="veh_passenger" depart="994.62" departLane="best">
        <route edges="147066248#8 4611708#4 831860725#0 -23755950#4 -23755950#1 -23755950#0 -66071366#4 -66071366#2 -66071366#1 -66071366#0 -389101365#4 -389101365#2 -35557143#4 -292429056#3"/>
    </vehicle>
    <vehicle id="veh37" type="veh_passenger" depart="1022.25" departLane="best">
        <route edges="-4611708#3 4611713#1 -4611711#1 -4611711#0 -23755961#2 -23755961#1 -23755961#0 389101374 766868095#1 766868095#2 24997595#0"/>
    </vehicle>
    <vehicle id="veh38" type="veh_passenger" depart="1049.88" departLane="best">
        <route edges="23755950#1 -23755950#1 -23755950#0 -66071366#4 -66071366#2 -66071366#1 -66071366#0 -389101365#4 -389101365#2 -35557143#4 -292429056#3"/>
    </vehicle>
    <vehicle id="veh39" type="veh_passenger" depart="1077.51" departLane="best" departSpeed="max">
        <route edges="4588222 840229278#1 22972473#4 22972473#5 22972470#1"/>
    </vehicle>
    <vehicle id="veh40" type="veh_passenger" depart="1105.14" departLane="best" departSpeed="max">
        <route edges="4611693#0 -23755950#4 -23755950#1 -23755950#0 -66071366#4 -66071366#2 -66071366#1 -66071366#0 -389101365#4 -389101365#2 -35557143#4 196850609#0 196850609#1 196850609#2"/>
    </vehicle>
    <vehicle id="veh41" type="veh_passenger" depart="1132.76" departLane="best">
        <route edges="-147066248#5 147066248#5 147066248#6 147066248#7 147066248#8 -4611708#3 4611713#1 -4611711#1 -4611711#0 -23755961#2 -23755961#1 -23755961#0 389101374 766868095#1 766868095#2 24997595#0 24997595#1 47707170#0 47707170#1 47707170#3 47707170#4 47707170#5 47707170#6 47707170#7 47755711"/>
    </vehicle>
    <vehicle id="veh42" type="veh_passenger" depart="1160.39" departLane="best">
        <route edges="-4611710#1 -4611710#0 -23017853 4611714#0 -4611718#1 -4611718#0 -15973619#8 -15973619#7 -15973619#6 -15973619#5"/>
    </vehicle>
    <vehicle id="veh43" type="veh_passenger" depart="1188.02" departLane="best">
        <route edges="4611714#7 -4611714#7 -4611714#6 -4611714#5 -4611714#4 24509317#0 24509317#1 -15973619#9 -15973619#8 -15973619#7 -15973619#6 -15973619#5 -15973619#4 -15973619#3 -15973619#2 -15973619#1 -15973619#0 831860725#0 4611696#1 54781811"/>
    </vehicle>
    <vehicle id="veh44" type="veh_passenger" depart="1215.65" departLane="best" departSpeed="max">
        <route edges="4588222 840229278#1 22972473#4 22972473#5 389101373#0 389101373#1 389101373#2 23755961#0 23755961#1 23755961#2 -23755961#2"/>
    </vehicle>
    <vehicle id="veh45" type="veh_passenger" depart="1243.28" departLane="best">
        <route edges="147066248#1 -147066248#1 -147066248#0 4611718#1 -4611714#0 -4611711#1 -4611711#0 -23755961#2 -23755961#1 -23755961#0 389101374 766868095#1 766868095#2 22972470#1"/>
    </vehicle>
    <vehicle id="veh46" type="veh_passenger" depart="1270.91" departLane="best" departSpeed="max">
        <route edges="-4611696#5 -4611696#4 -4611696#3 -23755950#4 -23755950#1 -23755950#0 -66071366#4 -66071366#2 -66071366#1 -66071366#0 -389101365#4 -389101365#2 22972473#0 22972473#3 22972473#4 22972473#5 24997595#0 24997595#1 47707170#0 47707170#1 47707170#3 47707170#4 47707170#5"/>
    </vehicle>
    <vehicle id="veh47" type="veh_passenger" depart="1298.54" departLane="best" departSpeed="max">
        <route edges="-47755711 47707171#0 47707171#1 47707171#2 47707171#4 47707171#5 47707171#6 47707171#7 -24997595#1 -24997595#0 389101373#0 389101373#1 389101373#2 23755961#0 23755961#1 35557161#5 -35557161#5"/>
    </vehicle>
    <vehicle id="veh48" type="veh_passenger" depart="1326.16" departLane="best">
        <route edges="-24997595#1 -24997595#0 389101373#0 389101373#1 389101373#2 23755961#0 23755961#1 23755961#2 4611711#0 4611711#1 4611714#0 -4611714#0"/>
    </vehicle>
    <vehicle id="veh49" type="veh_passenger" depart="1353.79" departLane="best" departSpeed="max">
        <route edges="-47755711 47707171#0 47707171#1 47707171#2 47707171#4 47707171#5 47707171#6 47707171#7 -24997595#1 -24997595#0 -22972473#5 -22972473#4 -22972473#3 -22972473#2 -35557143#4 196850609#0 196850609#1"/>
    </vehicle>
    <vehicle id="veh50" type="veh_passenger" depart="1381.42" departLane="best">
        <route edges="-22972473#4 -22972473#3 -840229275 -840229276#0 -4588219#0"/>
    </vehicle>
    <vehicle id="veh51" type="veh_passenger" depart="1409.05" departLane="best" departSpeed="max">
        <route edges="-4611712 4611711#0 4611711#1 -4611713#1 -4611713#0 23755950#0"/>
    </vehicle>
    <vehicle id="veh52" type="veh_passenger" depart="1436.68" departLane="best">
        <route edges="-35557161#5 -23755961#1 -23755961#0 389101374 766868095#1 766868095#2 -22972473#5 -22972473#4 -22972473#3 -840229275 -840229276#0 -4588219#0"/>
    </vehicle>
    <vehicle id="veh53" type="veh_passenger" depart="1464.31" departLane="best">
        <route edges="47707171#6 47707171#7 -24997595#1 -24997595#0 389101373#0 389101373#1 389101373#2 23755961#0 23755961#1 23755961#2 -23017852#3 -23017852#2 -23017852#1 23017852#1"/>
    </vehicle>
    <vehicle id="veh54" type="veh_passenger" depart="1491.93" departLane="best" departSpeed="max">
        <route edges="-22972470#1 389101373#0 389101373#1 389101373#2 23755961#0 23755961#1 23755961#2 4611711#0 4611711#1 -4611713#1 4611708#3 -147066248#8 -147066248#7 -147066248#6 -147066248#5 -147066248#4 147066248#4"/>
    </vehicle>
    <vehicle id="veh55" type="veh_passenger" depart="1519.56" departLane="best" departSpeed="max">
        <route edges="-47755711 47707171#0 47707171#1 47707171#2 47707171#4 47707171#5 47707171#6 47707171#7 -24997595#1 -24997595#0 389101373#0 389101373#1 389101373#2 23755961#0 23755961#1 23755961#2 4611711#0 4611711#1 4611714#0 -4611718#1 -4611718#0 15973619#9 15973619#10 15973619#11 15973619#12"/>
    </vehicle>
    <vehicle id="veh56" type="veh_passenger" depart="1547.19" departLane="best">
        <route edges="-4773029#0 66071366#3 4611713#0 4611713#1 4611714#0 4611714#2 4611714#3 4611714#4 4611714#5 4611714#6 4611714#7 4611714#8 -4611714#8"/>
    </vehicle>
    <vehicle id="veh57" type="veh_passenger" depart="1574.82" departLane="best">
        <route edges="4611714#2 -4611714#2 -4611714#0 -4611713#1 -4611713#0 -66071366#4 -66071366#2 -66071366#1 -66071366#0 -4611706#1 -4611706#0"/>
    </vehicle>
    <vehicle id="veh58" type="veh_passenger" depart="1602.45" departLane="best">
        <route edges="-66071366#0 -389101365#4 -389101365#2 22972473#0 22972473#3 22972473#4 22972473#5 24997595#0 24997595#1 47707170#0 47707170#1"/>
    </vehicle>
    <vehicle id="veh59" type="veh_passenger" depart="1630.08" departLane="best" departSpeed="max">
        <route edges="171423001#0 171423001#1 171423001#2 35557143#1 389101365#0 389101365#3 66071366#0 66071366#1 66071366#2 66071366#3 23755950#0 23755950#1 23755950#2 -831860725#2 734578686 15973619#1 15973619#2 15973619#3 -15973619#3"/>
    </vehicle>
    <vehicle id="veh60" type="veh_passenger" depart="1657.70" departLane="best">
        <route edges="840229278#1 22972473#4 22972473#5 389101373#0 389101373#1 389101373#2 23755961#0 23755961#1 23755961#2 4611711#0 4611711#1 4611714#0 4611714#2 4611714#3 4611714#4 4611714#5 4611714#6 4611714#7 4611714#8 4611714#9"/>
    </vehicle>
    <vehicle id="veh61" type="veh_passenger" depart="1685.33" departLane="best">
        <route edges="4611713#0 -4611713#0 -66071366#4 -66071366#2 -66071366#1 -66071366#0 -389101365#4 -389101365#2 -35557143#4 -292429056#3"/>
    </vehicle>
    <vehicle id="veh62" type="veh_passenger" depart="1712.96" departLane="best">
        <route edges="147066248#4 147066248#5 147066248#6 147066248#7 147066248#8 4611708#4 831860725#0 -23755950#4 -23755950#1 -23755950#0 -66071366#4 -66071366#2 -66071366#1 -66071366#0 -389101365#4 -389101365#2"/>
    </vehicle>
    <vehicle id="veh63" type="veh_passenger" depart="1740.59" departLane="best" departSpeed="max">
        <route edges="-4611714#9 -4611714#8 -4611714#7 -4611714#6 -4611714#5 -4611714#4 -4611714#3 -4611714#2 -4611714#0 -4611711#1 -4611711#0 -23755961#2 -23755961#1 -23755961#0 389101374 766868095#1"/>
    </vehicle>
    <vehicle id="veh64" type="veh_passenger" depart="1768.22" departLane="best" departSpeed="max">
        <route edges="-4611696#5 -4611696#4 -4611696#3 -23755950#4 -23755950#1 -23755950#0 4611713#0 4611713#1 -4611711#1 -4611711#0 4611712"/>
    </vehicle>
    <vehicle id="veh65" type="veh_passenger" depart="1795.85" departLane="best">
        <route edges="66071366#3 -66071366#4 -66071366#2 -66071366#1 -66071366#0 -389101365#4 -389101365#2 22972473#0 -840229275 840229276#1"/>
    </vehicle>
    <vehicle id="veh66" type="veh_passenger" depart="1823.47" departLane="best" departSpeed="max">
        <route edges="171423001#0 171423001#1 171423001#2 35557143#1 389101365#0 389101365#3 66071366#0 66071366#1 66071366#2 66071366#3 23755950#0 23755950#1 23755950#2 4611696#1"/>
    </vehicle>
    <vehicle id="veh67" type="veh_passenger" depart="1851.10" departLane="best">
        <route edges="-23755950#4 -23755950#1 -23755950#0 4611713#0 4611713#1 -4611711#1 -4611711#0"/>
    </vehicle>
    <vehicle id="veh68" type="veh_passenger" depart="1878.73" departLane="best" departSpeed="max">
        <route edges="66071370 4611713#0 4611713#1 23017853 23017852#1 23017852#2 23017852#3"/>
    </vehicle>
    <vehicle id="veh69" type="veh_passenger" depart="1906.36" departLane="best" departSpeed="max">
        <route edges="171423001#0 171423001#1 171423001#2 35557143#1 389101365#0 389101365#3 35557161#0 35557161#1 4611708#0 4611708#1"/>
    </vehicle>
    <vehicle id="veh70" type="veh_passenger" depart="1933.99" departLane="best" departSpeed="max">
        <route edges="-15973619#12 -15973619#11 -15973619#10 -15973619#9 4611718#0 4611718#1 -4611714#0 23017853"/>
    </vehicle>
    <vehicle id="veh71" type="veh_passenger" depart="1961.62" departLane="best">
        <route edges="-23755961#0 23755961#0 23755961#1 -35557161#4 -35557161#3 -35557161#2 -35557161#1 -35557161#0 66071366#0 66071366#1 66071366#2 66071366#3 23755950#0 23755950#1 23755950#2 4611696#1 54781811"/>
    </vehicle>
    <vehicle id="veh72" type="veh_passenger" depart="1989.25" departLane="best">
        <route edges="-15973619#6 -15973619#5 -15973619#4 -15973619#3 -15973619#2 -15973619#1 -15973619#0 831860725#0 -23755950#4 -23755950#1 -23755950#0 -66071366#4 -66071366#2 -66071366#1 -66071366#0 -389101365#4 -389101365#2 -35557143#4"/>
    </vehicle>
    <vehicle id="veh73" type="veh_passenger" depart="2016.87" departLane="best">
        <route edges="4611718#1 -4611714#0 -4611713#1 -4611713#0 -66071366#4 -66071366#2 -66071366#1 -66071366#0 -4611706#1 -4611706#0"/>
    </vehicle>
    <vehicle id="veh74" type="veh_passenger" depart="2044.50" departLane="best">
        <route edges="23017852#2 -23017852#2 -23017852#1 -23017852#0 4611710#1 4611710#2 -35557161#3 -35557161#2 -35557161#1 -35557161#0 -389101365#4 -389101365#2 243854725#0 243854725#3"/>
    </vehicle>
    <vehicle id="veh75" type="veh_passenger" depart="2072.13" departLane="best" departSpeed="max">
        <route edges="-4773029#2 -4773029#0 66071366#3 4611713#0 4611713#1 23017853"/>
    </vehicle>
    <vehicle id="veh76" type="veh_passenger" depart="2099.76" departLane="best">
        <route edges="15973619#4 15973619#5 15973619#6 15973619#7 15973619#8 4611718#0 4611718#1 -4611714#0 -4611711#1 -4611711#0 -23755961#2 -23755961#1 -23755961#0 389101374 766868095#1 766868095#2 24997595#0 24997595#1 47707170#0 47707170#1 47707170#3 47707170#4 47707170#5 47707170#6 47707170#7 47755711"/>
    </vehicle>
    <vehicle id="veh77" type="veh_passenger" depart="2127.39" departLane="best">
        <route edges="-35557143#4 35557143#1 389101365#0 389101365#3 66071366#0 66071366#1 66071366#2 66071366#3 23755950#0 23755950#1 23755950#2 4611696#1"/>
    </vehicle>
    <vehicle id="veh78" type="veh_passenger" depart="2155.02" departLane="best" departSpeed="max">
        <route edges="-35557161#6 -35557161#5 -23755961#1 -23755961#0 389101374 766868095#1 766868095#2 -22972473#5 -22972473#4 -840229277"/>
    </vehicle>
    <vehicle id="veh79" type="veh_passenger" depart="2182.64" departLane="best" departSpeed="max">
        <route edges="292429056#0 35557143#1 389101365#0 389101365#3 66071366#0 66071366#1 66071366#2 66071366#3 4611713#0 4611713#1 -4611711#1"/>
    </vehicle>
    <vehicle id="veh80" type="veh_passenger" depart="2210.27" departLane="best">
        <route edges="-15973619#4 -15973619#3 -15973619#2 -15973619#1 -15973619#0 831860725#0 -23755950#4 -23755950#1 -23755950#0 -66071366#4 -66071366#2 -66071366#1 -66071366#0 -389101365#4 -389101365#2"/>
    </vehicle>
    <vehicle id="veh81" type="veh_passenger" depart="2237.90" departLane="best" departSpeed="max">
        <route edges="-4611696#5 -4611696#4 -4611696#3 -23755950#4 -23755950#1 -23755950#0 -66071366#4 -66071366#2 -66071366#1 -66071366#0 -389101365#4 -389101365#2 22972473#0 22972473#3 22972473#4 22972473#5 24997595#0 24997595#1 47707170#0 47707170#1 47707170#3 47707170#4 47707170#5 47707170#6 47707170#7 47755711"/>
    </vehicle>
    <vehicle id="veh82" type="veh_passenger" depart="2265.53" departLane="best">
        <route edges="4611714#7 -4611714#7 -4611714#6 -4611714#5 -4611714#4 -4611714#3 -4611714#2 -4611714#0 -4611711#1 -4611711#0 -23755961#2 -23755961#1 -23755961#0 389101374 766868095#1 766868095#2 24997595#0 24997595#1 47707170#0 47707170#1 47707170#3 47707170#4 47707170#5 47707170#6 47707170#7"/>
    </vehicle>
    <vehicle id="veh83" type="veh_passenger" depart="2293.16" departLane="best">
        <route edges="-4611714#7 -4611714#6 -4611714#5 -4611714#4 -4611714#3 -4611714#2 -4611714#0 -4611713#1 -4611713#0 -66071366#4 -66071366#2 -66071366#1 -66071366#0 -389101365#4 -389101365#2 -35557143#4 -292429056#3"/>
    </vehicle>
    <vehicle id="veh84" type="veh_passenger" depart="2320.79" departLane="best">
        <route edges="4611708#4 -4611708#4 -4611708#3 4611713#1 -4611711#1 -4611711#0 -23755961#2 -23755961#1 -23755961#0 389101374 766868095#1 766868095#2 389101373#0 389101373#1"/>
    </vehicle>
    <vehicle id="veh85" type="veh_passenger" depart="2348.41" departLane="best">
        <route edges="23755950#2 -23755950#4 -23755950#1 -23755950#0 -66071366#4 -66071366#2 -66071366#1 -66071366#0 35557161#0 35557161#1 35557161#2 35557161#3 35557161#4 -23755961#1 -23755961#0 389101374 766868095#1 766868095#2"/>
    </vehicle>
    <vehicle id="veh86" type="veh_passenger" depart="2376.04" departLane="best" departSpeed="max">
        <route edges="292429056#0 35557143#1 389101365#0 389101365#3 66071366#0 66071366#1 66071366#2 66071366#3 4611713#0 4611708#3 -147066248#8 -147066248#7 -147066248#6 -147066248#5 -147066248#4 -147066248#3 -147066248#2"/>
    </vehicle>
    <vehicle id="veh87" type="veh_passenger" depart="2403.67" departLane="best" departSpeed="max">
        <route edges="-4611696#5 -4611696#4 -4611696#3 -23755950#4 -23755950#1 -23755950#0 -66071366#4 -66071366#2 -66071366#1 -66071366#0 35557161#0 35557161#1 35557161#2 35557161#3 35557161#4 23755961#2"/>
    </vehicle>
    <vehicle id="veh88" type="veh_passenger" depart="2431.30" departLane="best">
        <route edges="24509317#1 -15973619#9 -15973619#8 -15973619#7 -15973619#6 -15973619#5 -15973619#4 -15973619#3 -15973619#2 -15973619#1 -15973619#0 831860725#0 -23755950#4 -23755950#1 -23755950#0 -66071366#4 -66071366#2 -66071366#1 -66071366#0 -4611706#1"/>
    </vehicle>
    <vehicle id="veh89" type="veh_passenger" depart="2458.93" departLane="best">
        <route edges="147066248#5 147066248#6 147066248#7 147066248#8 -4611708#3 4611713#1 -4611711#1 -4611711#0 -23755961#2 -23755961#1 -23755961#0 389101374 766868095#1 766868095#2 24997595#0 24997595#1 47707170#0 47707170#1 47707170#3 47707170#4 47707170#5 47707170#6 47707170#7 47755711 -47755711 47707171#0 47707171#1 47707171#2 47707171#4 47707171#5 47707171#6 47707171#7"/>
    </vehicle>
    <vehicle id="veh90" type="veh_passenger" depart="2486.56" departLane="best" departSpeed="max">
        <route edges="-47755711 47707171#0 47707171#1 47707171#2 47707171#4 47707171#5 47707171#6 47707171#7 -24997595#1 -24997595#0 389101373#0 389101373#1 389101373#2 23755961#0 23755961#1 23755961#2 4611711#0 4611711#1 -4611713#1 -4611708#2"/>
    </vehicle>
    <vehicle id="veh91" type="veh_passenger" depart="2514.18" departLane="best">
        <route edges="24997595#0 -24997595#0 -22972473#5 -22972473#4 -22972473#3 -22972473#2 389101365#0 389101365#3 -4611706#1 -4611706#0"/>
    </vehicle>
    <vehicle id="veh92" type="veh_passenger" depart="2541.81" departLane="best" departSpeed="max">
        <route edges="4588219#0 4588219#1 840229276#1 22972473#3 22972473#4 22972473#5 22972470#1"/>
    </vehicle>
    <vehicle id="veh93" type="veh_passenger" depart="2569.44" departLane="best" departSpeed="max">
        <route edges="-47755711 47707171#0 47707171#1 47707171#2 47707171#4 47707171#5 47707171#6 47707171#7 -24997595#1 -24997595#0 389101373#0 389101373#1 389101373#2 23755961#0 23755961#1 23755961#2 4611711#0 4611711#1 4611714#0 -4611718#1 147066248#0 147066248#1 147066248#2 -147066248#2"/>
    </vehicle>
    <vehicle id="veh94" type="veh_passenger" depart="2597.07" departLane="best">
        <route edges="-15973619#4 -15973619#3 -15973619#2 -15973619#1 -15973619#0 831860725#0 -23755950#4 -23755950#1 -23755950#0 -66071366#4 -66071366#2 -66071366#1 -66071366#0 -389101365#4 -389101365#2 22972473#0 22972473#3 22972473#4 22972473#5 24997595#0 24997595#1 47707170#0 47707170#1 47707170#3 47707170#4 47707170#5 47707170#6 47707170#7 47755711 -47755711 47707171#0"/>
    </vehicle>
    <vehicle id="veh95" type="veh_passenger" depart="2624.70" departLane="best">
        <route edges="-23755950#1 -23755950#0 4611713#0 4611713#1 -4611711#1 -4611711#0 -23755961#2"/>
    </vehicle>
    <vehicle id="veh96" type="veh_passenger" depart="2652.33" departLane="best">
        <route edges="-4611710#1 4611710#1 4611710#2 35557161#4 -23755961#1 -23755961#0 389101374 766868095#1 766868095#2 24997595#0 24997595#1 47707170#0 47707170#1 47707170#3 47707170#4 47707170#5 47707170#6 47707170#7 47755711 -47755711 47707171#0 47707171#1 47707171#2 47707171#4 47707171#5 47707171#6"/>
    </vehicle>
    <vehicle id="veh97" type="veh_passenger" depart="2679.96" departLane="best" departSpeed="max">
        <route edges="4611706#0 4611706#1 -389101365#4 -389101365#2 22972473#0 22972473#3 22972473#4 22972473#5 24997595#0 24997595#1 47707170#0 47707170#1"/>
    </vehicle>