<?xml version="1.0" encoding="UTF-8"?>

<!-- generated on Thu Apr 15 19:02:55 2021 by Eclipse SUMO duarouter Version 1.7.0
<configuration xmlns:xsi="http://www.w3.org/2001/XMLSchema-instance" xsi:noNamespaceSchemaLocation="http://sumo.dlr.de/xsd/duarouterConfiguration.xsd">

    <input>
        <net-file value="/home/yoshida/carla/Co-Simulation/Sumo/osm_web_wizard/2021-04-15-19-02-35/osm.net.xml"/>
        <route-files value="/home/yoshida/carla/Co-Simulation/Sumo/osm_web_wizard/2021-04-15-19-02-35/osm.passenger.trips.xml"/>
    </input>

    <output>
        <output-file value="routes.rou.xml"/>
        <alternatives-output value="routes.rou.alt.xml"/>
    </output>

    <time>
        <begin value="0"/>
        <end value="3600"/>
    </time>

    <report>
        <no-warnings value="true"/>
        <ignore-errors value="true"/>
        <no-step-log value="true"/>
    </report>

</configuration>
-->

<routes xmlns:xsi="http://www.w3.org/2001/XMLSchema-instance" xsi:noNamespaceSchemaLocation="http://sumo.dlr.de/xsd/routes_file.xsd">
    <vType id="veh_passenger" vClass="passenger"/>
    <vehicle id="veh0" type="veh_passenger" depart="0.00" departLane="best">
        <route edges="311690284 187111590#0 47016365#1 301241483#3 728838409#0 728838409#1 728838409#2 301241681#1 301241681#3 301241681#4 246052428 301167584#0 112128419#1 112128419#2 415280722 195401013#2 195401013#3 24914992#1 171826985#1 171826985#3 24913519#1 24913519#2 541763975 202156995#0 202156995#1 4067932#1 541763974 61584187#1 61584187#2 61584187#3 61584187#4 54048863 15971197#0 15971197#1 751602168 169195795#0 169195795#1 169195795#4 169195795#5 169195795#6 169195795#7 169195795#8 169195795#9 882389494 340498988#0 188386313#1 188386313#2 153698380#0 -153698380#2"/>
    </vehicle>
    <vehicle id="veh1" type="veh_passenger" depart="2.99" departLane="best">
        <route edges="-82658674#4 82658674#3 -24992424#2 840860363#0 840860363#1 606078065 156364553#1 61583424#1 534588621#0 534588621#1 72157174#1 171826984#2 4612981#1 -4612981#1"/>
    </vehicle>
    <vehicle id="veh2" type="veh_passenger" depart="5.98" departLane="best" departSpeed="max">
        <route edges="369223458#0 369223458#1 24993933#0 24993933#1 24993933#2 4613308#2 4613308#3 756306892 112128419#1 112128419#2 415280722 195401013#2 195401013#3 24914992#1 171826985#1 171826985#3 24913519#1 24913519#2 541763975 202156995#0 202156995#1 4067932#1 541763974 61584187#1 61584187#2 61584187#3 61584187#4 54048863 15971197#0 15971197#1 751602168 169195795#0 169195795#1 169195795#4 169195795#5 169195795#6 169195795#7 169195795#8 169195795#9 882389494 340498988#0 188386313#1 188386313#2 24913267#0 24913267#3 4402014#0 4402014#3 326116285#0 326116285#2"/>
    </vehicle>
    <vehicle id="veh3" type="veh_passenger" depart="8.98" departLane="best">
        <route edges="606078065 -156364553#0 60333311#1 60333311#2 289966097 289966281 289830064 289966845 289967595#0 82659290#0 66311464#1 82639450 313039168#1 168943639#1 168943639#2 168943639#5 -23386522#10 -23386522#9 -23386522#8 -23386522#6 -23386522#5 -23386522#4 -23386522#3"/>
    </vehicle>
    <vehicle id="veh4" type="veh_passenger" depart="11.97" departLane="best" departSpeed="max">
        <route edges="18997847#0 18997847#1 909402342 25086766 25086767#0 25086767#1 25086767#2 156364559#1 830728708#0 830728708#1 830728708#2 830728708#3 830728708#4 830728708#5 -24992424#5 -24992424#2 840860363#0 840860363#1 606078065 156364553#1 61583424#1 534588621#0 534588621#1 4773465#1 4773465#2 4773465#3 490365295#0 490365295#1 -156364570#3"/>
    </vehicle>
    <vehicle id="veh5" type="veh_passenger" depart="14.96" departLane="best">
        <route edges="-15973619#0 831860725#0 -23755950#4 -23755950#1 -23755950#0 -66071366#4 -66071366#2 -66071366#1 -66071366#0 -389101365#4 -389101365#2 243854725#0 243854725#3 -24242882#0 4588217 -4588217"/>
    </vehicle>
    <vehicle id="veh6" type="veh_passenger" depart="17.95" departLane="best">
        <route edges="312533962#3 749876417 246044848 749876418#0 749876418#1 831658811#1 246044841#0 246044844#1 19001381#1 19001381#2 176031291#0 176031291#1 909402342 25086766"/>
    </vehicle>
    <vehicle id="veh7" type="veh_passenger" depart="20.94" departLane="best">
        <route edges="-4613299#1 -4613299#0 369223458#1 24993933#0 24993933#1 24993933#2 4613308#2 4613308#3 756306892 100405009#1 100405009#2 100405009#3 100405009#4 305093247#0 305093247#2 305093328#0 305093328#1 163368988#3 301733776 19801548#2 188046016#0 66311464#1 82639450 313039168#1 168943639#1 168943639#2 29290632#0"/>
    </vehicle>
    <vehicle id="veh8" type="veh_passenger" depart="23.93" departLane="best">
        <route edges="4611694#1 251884680 339201217#1 54048862#0 54048862#1 54048862#3 541763974 61584187#1 61584187#2 61584187#3 61584187#4 54048863 15971197#0 15971197#1 751602168 169195795#0 169195795#1 169195795#4 169195795#5 169195795#6 169195795#7 169195795#8 169195795#9 882389494 340498988#0 188386313#1 188386313#2 153698380#0 111833186#0 111833186#1 -111833186#1"/>
    </vehicle>
    <vehicle id="veh9" type="veh_passenger" depart="26.93" departLane="best">
        <route edges="4610610#0 4610610#1 4610610#2 -52328295#2 52328295#0 755551647 755551646#1 755551646#2 43156728#2 120675240#0 120675240#3 120675240#4 -4611696#4 -4611696#3 -23755950#4 -23755950#1 -23755950#0 -66071366#4 -66071366#2 -66071366#1 -66071366#0 -389101365#4 -389101365#2 -35557143#4 -292429056#4 -292429056#2 4588220#0 -326116286#2 -24913267#2 342968607#1"/>
    </vehicle>
    <vehicle id="veh10" type="veh_passenger" depart="29.92" departLane="best">
        <route edges="156364562#1 246044844#1 156364559#1 830728708#0 830728708#1 830728708#2 830728708#3 830728708#4 830728708#5 -24992424#5 -24992424#2 840860363#0 840860363#1 81112790#1 23851930 625843712 -328426193#2"/>
    </vehicle>
    <vehicle id="veh11" type="veh_passenger" depart="32.91" departLane="best">
        <route edges="824274188#0 156364559#1 830728708#0 830728708#1 830728708#2 830728708#3 830728708#4 830728708#5 -24992424#5 -24992424#2 840860363#0 840860363#1 606078065 156364553#1 61583424#1 534588621#0 534588621#1 24913519#1 24913519#2 541763975 202156995#0 202156995#1 4067932#1 541763974 61584187#1 61584187#2 61584187#3 61584187#4 54048863 15971197#0 15971197#1 751602168 169195795#0 169195795#1 169195795#4 169195795#5 169195795#6 169195795#7 169195795#8 169195795#9 882389494 340498988#0 169999355#0 -11483007#2 22972195#2 465376239 465376255#2 190447767 190447766#1 4402228 465376254 222328410 -6228081 541295974 153698390#1 427637455 705182550 164039095#0 164039095#1"/>
    </vehicle>
    <vehicle id="veh12" type="veh_passenger" depart="35.90" departLane="best">
        <route edges="-234463931#2 -234463931#1 -234463931#0 77348147 156364570#1 156364570#2 156364556#1 202157002#1 202157002#2 24913519#1 24913519#2 541763975 202156995#0 202156995#1 4067932#1 541763974 61584187#1 61584187#2 61584187#3 61584187#4 54048863 15971197#0 15971197#1 751602168 169195795#0 169195795#1 340498982#8 340498982#9 -4610524 66071379#1 66071370 23755950#0 23755950#1 23755950#2 -23755950#4"/>
    </vehicle>
    <vehicle id="veh13" type="veh_passenger" depart="38.89" departLane="best">
        <route edges="465376239 465376255#2 190447767 190447766#1 190447768#2 195411602#1 465376240#0 195411604 83517336#0 83517336#2 153698394#1 153698394#2 340498982#0 340498982#2 340498982#3 340498982#4 340498982#5 340498982#8 340498982#9 354528932 251884680 339201217#1 54048862#0 54048862#1 54048862#3 831694400 23013165#1 23013165#2 4611698#1 202156994#0 72157174#1 171826984#2 195401006 195401017#5 139877314#1 100405009#1 100405009#2 100405009#3 100405009#4 305093247#0 305093247#2 305093328#0 305093328#1 301241483#3 728838409#0 728838409#1 728838409#2 301241681#1 301241681#3"/>
    </vehicle>
    <vehicle id="veh14" type="veh_passenger" depart="41.88" departLane="best">
        <route edges="4610612 -505475202#1 -505475202#0 755551646#2 43156728#2 120675240#0 120675240#3 120675240#4 -4611696#4 -4611696#3 -23755950#4 -23755950#1 -23755950#0 -66071366#4 -66071366#2 -66071366#1 -66071366#0 -389101365#4 -389101365#2 -35557143#4 196850609#0 196850609#1 196850609#2 882389497 194069450#0 169999355#0 -11483007#2 22972195#2 465376239 465376255#2 190447767 190447766#1 4402228 465376254 222328410 -6228081 541295974 153698390#1 427637455"/>
    </vehicle>
    <vehicle id="veh15" type="veh_passenger" depart="44.88" departLane="best">
        <route edges="24913519#2 541763975 202156995#0 202156995#1 4067932#1 831694400 23013165#1 23013165#2 4611698#1 202156994#0 -534588621#1 -534588621#0 606078071#0 -751595930 -156364553#0 156364566#1 60333309#0 60333309#1 24992424#0 24992424#3 4612961#0 4612961#1 830728708#3 830728708#4"/>
    </vehicle>
    <vehicle id="veh16" type="veh_passenger" depart="47.87" departLane="best">
        <route edges="171826985#1 171826985#3 -534588621#1 -534588621#0 606078071#0 -751595930 -156364553#0 156364566#1 60333309#0 60333309#1 24992424#0 24992424#3 4612961#0 4612961#1 4612961#2 344594966 82652397#0 82652397#1 19001381#1 19001381#2 176031291#0 176031291#1 25086769#0 25086769#1"/>
    </vehicle>
    <vehicle id="veh17" type="veh_passenger" depart="50.86" departLane="best" departSpeed="max">
        <route edges="4612970#0 4612970#1 82658674#2 82658674#3 -24992424#2 840860363#0 840860363#1 606078065 156364553#1 61583424#1 534588621#0 534588621#1 4773465#1 4773465#2 4773465#3 490365295#0 490365295#1 -156364570#3 -156364570#1 -156364570#0 -387892378 -370359204#1 -370359204#0 -743631784 -316746323#0 -84960595 183415643 46140382 30721660#1"/>
    </vehicle>
    <vehicle id="veh18" type="veh_passenger" depart="53.85" departLane="best">
        <route edges="490365295#0 490365295#1 156364556#1 202157002#1 202157002#2 -534588621#1 -534588621#0 606078071#0 -751595930 -156364553#0 60333311#1 60333311#2 289966097 289966281 289830064"/>
    </vehicle>
    <vehicle id="veh19" type="veh_passenger" depart="56.84" departLane="best">
        <route edges="335462916 85255870#0 -85255870#2 -335462916 -4401967#2 -335462874#2 -326116285#2 -326116285#1 -4402014#3 -4402014#2 -326116286#2 -24913267#2 342968607#1 461526152#0 340498982#0 340498982#2 340498982#3 340498982#4 340498982#5 340498982#8 340498982#9 354528932 251884680 339201217#1 54048862#0 54048862#1 54048862#3 831694400 23013165#1 23013165#2 4611698#1 202156994#0 -534588621#1 -534588621#0 606078071#0 -751595930 -156364553#0 156364566#1 60333309#0 60333309#1 24992424#0 24992424#3 4612961#0 4612961#1 4612961#2 344594966 82652397#0 82652397#1 156364562#1 312534044#3 312533961#0 168943642#1 168943642#3 168943642#4 168943642#5 -168943642#5"/>
    </vehicle>
    <vehicle id="veh20" type="veh_passenger" depart="59.83" departLane="best">
        <route edges="-4615546#2 -4615546#1 -4615546#0 -29290632#1 -29290632#0 -168943639#2 -168943639#1 313195075 188047750 312514710#0 30826268#1 316092515 309155392 195407521 309147331#0 344594962 312357351#0 312357351#1 309479676 4611726 82649618 819027709#0 606078065 156364553#1 61583424#1 534588621#0 534588621#1 24913519#1 24913519#2 541763975 202156995#0 202156995#1 4067932#1 541763974 61584187#1 61584187#2 61584187#3 61584187#4 54048863 15971197#0 15971197#1 751602168 169195795#0 169195795#1 169195795#4 169195795#5 169195795#6 169195795#7 169195795#8 169195795#9 882389494 340498988#0 188386313#1 188386313#2 153698380#0 111833186#0"/>
    </vehicle>
    <vehicle id="veh21" type="veh_passenger" depart="62.83" departLane="best" departSpeed="max">
        <route edges="-22954356#4 -22954356#3 -22954356#2 -22954356#1 -22954356#0 23443935#0 23443935#1 23443935#2 909402342 25086766 25086767#0 25086767#1 25086767#2 156364559#1 830728708#0 830728708#1 830728708#2 830728708#3 830728708#4 830728708#5 -24992424#5 -24992424#2 840860363#0 840860363#1 606078065 156364553#1 61583424#1 534588621#0 534588621#1 24913519#1 24913519#2 541763975 202156995#0 202156995#1 4067932#1 541763974 61584187#1 61584187#2 61584187#3 61584187#4 54048863 15971197#0 15971197#1 751602168 169195795#0 169195795#1 -28251222#1 -28251222#0 -4773029#2 -4773029#1"/>
    </vehicle>
    <vehicle id="veh22" type="veh_passenger" depart="65.82" departLane="best">
        <route edges="-23813206#0 -24241797#3 -24241797#2 4613308#2 4613308#3 756306892 100405009#1"/>
    </vehicle>
    <vehicle id="veh23" type="veh_passenger" depart="68.81" departLane="best">
        <route edges="310176513#6 310176513#7 830728708#3 830728708#4 830728708#5 -24992424#5 -24992424#2 840860363#0 840860363#1 606078065 156364553#1 61583424#1 534588621#0 534588621#1 24913519#1 24913519#2 541763975 202156995#0 202156995#1 4067932#1 541763974 61584187#1 61584187#2 61584187#3 61584187#4 54048863 15971197#0 15971197#1 751602168 169195795#0 169195795#1 169195795#4 169195795#5 169195795#6 169195795#7 169195795#8 169195795#9 882389494 340498988#0 -194069450#2 -882389497 171423001#0"/>
    </vehicle>
    <vehicle id="veh24" type="veh_passenger" depart="71.80" departLane="best">
        <route edges="-743631784 316746323#1 370359204#0 370359204#1 370359204#2 77348147 156364570#1 156364570#2 156364556#1 202157002#1 202157002#2 24913519#1 24913519#2 541763975 202156995#0 202156995#1 4067932#1 541763974 61584187#1 61584187#2 61584187#3 61584187#4 54048863 15971197#0 15971197#1 751602168 169195795#0 169195795#1 340498982#8 340498982#9 -4610524 66071379#1 66071370 23755950#0 23755950#1 23755950#2 -831860725#2 734578686"/>
    </vehicle>
    <vehicle id="veh25" type="veh_passenger" depart="74.79" departLane="best">
        <route edges="312533962#2 312533962#3 749876417 313039168#1 313195075 188047750 312514710#0 24540242#1 188044903#0 47016365#1 301241483#3 728838409#0 728838409#1 728838409#2 301241681#1 301241681#3 301241681#4 246052428 301167584#0 100405009#1 100405009#2 100405009#3 100405009#4 305093247#0 305093247#2"/>
    </vehicle>
    <vehicle id="veh26" type="veh_passenger" depart="77.78" departLane="best">
        <route edges="-387892378 370359204#2 77348147 156364570#1 156364570#2 156364556#1 202157002#1 202157002#2 24913519#1 24913519#2 541763975 202156995#0 202156995#1 4067932#1 541763974 61584187#1 61584187#2 61584187#3 61584187#4 54048863 15971197#0 15971197#1 751602168 169195795#0 169195795#1 169195795#4 169195795#5 169195795#6 169195795#7 169195795#8 169195795#9 882389494 340498988#0 188386313#1 188386313#2 24913304#1 24913304#2 24913304#3 24240245#1 210668637#0 210668637#1 424323348"/>
    </vehicle>
    <vehicle id="veh27" type="veh_passenger" depart="80.78" departLane="best">
        <route edges="-35557161#0 -389101365#4 -389101365#2 -35557143#4 196850609#0 196850609#1 196850609#2 882389497 194069450#0 169999355#0 -11483007#2 22972195#2 465376239 465376255#2 190447767 190447766#1 4402228 465376254 222328410 -6228081 541295974 30720544#0 30720544#1 42103020#0 42103020#2 111251382#3 437325051#0 437325051#1 176043806#0 176043806#1 176043807#0 176043807#1 176043807#3 176043807#4 176043807#5 176043807#6 176043807#7"/>
    </vehicle>
    <vehicle id="veh28" type="veh_passenger" depart="83.77" departLane="best" departSpeed="max">
        <route edges="847103786#0 847103786#1 755340907 -24241790#3 -24241790#2 -19002363#10 -19002363#6 -19002363#4 -19002363#3 -19002363#2 -19002363#1 4613292#0 4613308#2 4613308#3 756306892 100405009#1 100405009#2 100405009#3 100405009#4 305093247#0 305093247#2 305093328#0 305093328#1 163368988#3 301733776 19801548#2 188046016#0 30826268#1 316092515 309155392 195407521 309147331#0 344594962 312357351#0"/>
    </vehicle>
    <vehicle id="veh29" type="veh_passenger" depart="86.76" departLane="best">
        <route edges="25086767#1 25086767#2 156364559#1 830728708#0 830728708#1 830728708#2 830728708#3 830728708#4 830728708#5 -24992424#5 -24992424#2 840860363#0 840860363#1 606078065 156364553#1 61583424#1 534588621#0 534588621#1 24913519#1 24913519#2 541763975 202156995#0 202156995#1 4067932#1 541763974 61584187#1 61584187#2 61584187#3 61584187#4 54048863 15971197#0 15971197#1 751602168 169195795#0 169195795#1 169195795#4 169195795#5 169195795#6 169195795#7 114667396#0 340498976#2 340498976#3"/>
    </vehicle>
    <vehicle id="veh30" type="veh_passenger" depart="89.75" departLane="best">
        <route edges="4615547#0 4615547#1 4615547#2 23386522#5 23386522#6 23386522#8 23386522#9 23386522#10 -168943639#5 -168943639#2 -168943639#1 313195075 188047750 312514710#0 30826268#1 316092515 309155392 195407521 309147331#0 344594962 312357351#0 312357351#1 309479676 4611726 82649618 819027709#0 81112790#1 23851930 625843712 52328295#0 755551647 755551646#1 4610607 505475202#1 4610608"/>
    </vehicle>
    <vehicle id="veh31" type="veh_passenger" depart="92.74" departLane="best" departSpeed="max">
        <route edges="-4615546#3 -4615546#2 -4615546#1 -4615546#0 -29290632#1 -29290632#0 -168943639#2 -168943639#1 313195075 188047750 312514710#0 30826268#1 316092515 309155392 195407521 309147331#0 344594962 312357351#0 312357351#1 309479676 4611726 82649618 819027709#0 606078065 156364553#1 -751595928#1 -136571494#3 -136571494#2 -136571494#1 -136571494#0 -202817674#3 -202817674#2 120675240#0 120675240#3 120675240#4 -4611696#4 -4611696#3 -831860725#2 734578686 15973619#1 -15973619#1"/>
    </vehicle>
    <vehicle id="veh32" type="veh_passenger" depart="95.73" departLane="best" departSpeed="max">
        <route edges="-4612427#2 -4612427#1 -4612427#0 23443935#0 23443935#1 23443935#2 909402342 25086766 25086767#0 25086767#1 25086767#2 156364559#1 830728708#0 830728708#1 830728708#2 830728708#3 830728708#4 830728708#5 -24992424#5 -24992424#2 840860363#0 840860363#1 81112790#1 23851930 625843712 753730627#1"/>
    </vehicle>
    <vehicle id="veh33" type="veh_passenger" depart="98.73" departLane="best">
        <route edges="54048862#3 541763974 61584187#1 61584187#2 61584187#3 61584187#4 54048863 15971197#0 15971197#1 751602168 169195795#0 169195795#1 169195795#4 169195795#5 169195795#6 169195795#7 169195795#8 169195795#9 882389494 340498988#0 188386313#1 188386313#2 24913304#1 24913304#2 24913304#3 -108031933#1 -437325055#2 -437325056#2 -4588211#1 -4588211#0 153698402#1"/>
    </vehicle>
    <vehicle id="veh34" type="veh_passenger" depart="101.72" departLane="best">
        <route edges="31313667#1 31313667#2 31313667#3 24243092#1 35578576#0 35578576#1 35578576#2 153698394#1 153698394#2 340498982#0 340498982#2 340498982#3 340498982#4 340498982#5 340498982#8 340498982#9 354528932 251884680 339201217#1 54048862#0 54048862#1 54048862#3 831694400 23013165#1 23013165#2 4611698#1 202156994#0 72157174#1 171826984#2 195401006 195401017#5 139877314#1 100405009#1 100405009#2 100405009#3 100405009#4 305093247#0 305093247#2 305093328#0 305093328#1 163368988#3 301733776 19801618#1 19801618#2 19801618#3 19801618#4 189133036#0 189133036#1 189133036#2 189133036#3 4790833#0 293931248#0 293931248#1 294104504#1 189133035#0"/>
    </vehicle>
    <vehicle id="veh35" type="veh_passenger" depart="104.71" departLane="best">
        <route edges="68647306#6 28251222#0 28251222#1 340498982#8 340498982#9 354528932 251884680 339201217#1 54048862#0 54048862#1 54048862#3 831694400 23013165#1 23013165#2 4611698#1 202156994#0 72157174#1 171826984#2 195401006 195401017#5 139877314#1 112128418#1 112128418#2 112128418#5 112128418#6 457031289 309300320#0 177372522 295445243 296122995#0 890801131#1 232070355#0"/>
    </vehicle>
    <vehicle id="veh36" type="veh_passenger" depart="107.70" departLane="best">
        <route edges="25302636#1 -25302636#1 -25294729#0 156364570#1 156364570#2 156364556#1 202157002#1 202157002#2 24913519#1 24913519#2 541763975 202156995#0 202156995#1 4067932#1 541763974 61584187#1 61584187#2 61584187#3 61584187#4 54048863 15971197#0 15971197#1 751602168 169195795#0 169195795#1 169195795#4 169195795#5 169195795#6 169195795#7 169195795#8 169195795#9 882389494 340498988#0 188386313#1 188386313#2 24913304#1 24913304#2 24913304#3 -108031933#1 -437325055#2 -437325056#2 -4588211#1 -4588211#0 -25945966 -4412886#1 153698415#0 153698415#2 -76212441#0"/>
    </vehicle>
    <vehicle id="veh37" type="veh_passenger" depart="110.69" departLane="best">
        <route edges="292429056#0 292429056#3 196850609#0 196850609#1 196850609#2 882389497 194069450#0 461526152#0 340498982#0 340498982#2 340498982#3 340498982#4 340498982#5 340498982#8 340498982#9 354528932 251884680 339201217#1 54048862#0 54048862#1 54048862#3 831694400 23013165#1 23013165#2 4611698#1 202156994#0 -534588621#1 -534588621#0 606078071#0 -751595930 -156364553#0 156364566#1 60333309#0 60333309#1"/>
    </vehicle>
    <vehicle id="veh38" type="veh_passenger" depart="113.68" departLane="best" departSpeed="max">
        <route edges="187091988 187103792#1 307098733#1 187103791 311690284 187111590#0 19801548#2 188046016#0 30826268#1 316092515 309155392 195407521 309147331#0 344594962 312357351#0 312357351#1 309479676 4611726 82649618 819027709#0 156364566#1 60333309#0 60333309#1 24992424#0 -82658674#4 -82658674#2 -4612970#1 -4612970#0"/>
    </vehicle>
    <vehicle id="veh39" type="veh_passenger" depart="116.68" departLane="best">
        <route edges="902316106#1 -902316106#1 195407521 309147331#0 344594962 312357351#0 312357351#1 309479676 4611726 82649618 819027709#0 606078065 156364553#1 61583424#1 534588621#0 534588621#1 72157174#1 171826984#2 195401006 195401017#5 139877314#1 19002403#1 523630409 24241797#0 24241797#3"/>
    </vehicle>
    <vehicle id="veh40" type="veh_passenger" depart="119.67" departLane="best">
        <route edges="-23443935#2 23443935#2 909402342 25086766 25086767#0 25086767#1 25086767#2 156364559#1 830728708#0 830728708#1 830728708#2 830728708#3 830728708#4 830728708#5 -24992424#5 -24992424#2 840860363#0 840860363#1 606078065 156364553#1 61583424#1 534588621#0 534588621#1 24913519#1 24913519#2 541763975 202156995#0 202156995#1 4067932#1 541763974 61584187#1 61584187#2 61584187#3 61584187#4 54048863 15971197#0 15971197#1 751602168 169195795#0 169195795#1 169195795#4 169195795#5 169195795#6 169195795#7 169195795#8 169195795#9 882389494 340498988#0 169999355#0 -169999355#2"/>
    </vehicle>
    <vehicle id="veh41" type="veh_passenger" depart="122.66" departLane="best">
        <route edges="-24242882#1 243854725#4 66071373#1 340498982#0 340498982#2 340498982#3 340498982#4 340498982#5 340498982#8 340498982#9 354528932 251884680 339201217#1 54048862#0 54048862#1 54048862#3 831694400 23013165#1 23013165#2 4611698#1 202156994#0 72157174#1 171826984#2 195401006 195401017#5 139877314#1 112128418#1 112128418#2 112128418#5 112128418#6 457031289 309300320#0"/>
    </vehicle>
    <vehicle id="veh42" type="veh_passenger" depart="125.65" departLane="best">
        <route edges="4597320#2 4597320#3 4597320#4 533509622#2 533509622#3 23755739#0 23755739#3 23755739#4 681299268 168935756#0 292429056#0 292429056#3 196850609#0 196850609#1 196850609#2"/>
    </vehicle>
    <vehicle id="veh43" type="veh_passenger" depart="128.64" departLane="best">
        <route edges="-195104960#5 195104960#5 4412886#0 24234486 4588211#0 4588211#1 437325056#0 437325055#0 108031933#0 38912785 24240246#1 24240246#2 24240246#3 236092221#0 236092221#1 236092221#2 236092221#3 342968607#1 461526152#0 340498982#0 340498982#2 340498982#3 340498982#4 340498982#5 340498982#8 340498982#9 354528932 251884680 339201217#1 54048862#0 54048862#1 54048862#3 831694400 23013165#1 23013165#2 4611698#1 202156994#0 72157174#1 171826984#2 195401006 195401017#5 139877314#1 112128418#1 112128418#2 112128418#5 112128418#6 457031289 309300320#0 177372522"/>
    </vehicle>
    <vehicle id="veh45" type="veh_passenger" depart="134.63" departLane="best">
        <route edges="830728708#2 4612961#2 344594966 82652397#0 82652397#1 156364562#1 312534044#3 312533961#0 312533962#1 312533962#2 312533962#3 749876417 313039168#1 313195075 188047750 312514710#0 24540242#1 188044903#0 19801618#1 19801618#2 19801618#3 19801618#4 189133036#0 189133036#1 189133036#2 189133036#3 4790833#0 293931248#0 293931248#1 294104504#1 189133035#0 4790839#1"/>
    </vehicle>
    <vehicle id="veh46" type="veh_passenger" depart="137.62" departLane="best">
        <route edges="-128396190#3 -128396190#2 -128396190#1 4611726 82649618 819027709#0 606078065 156364553#1 -751595928#1 -136571494#3 -136571494#2 -136571494#1 -136571494#0 -202817674#3 -202817674#2 120675240#0 120675240#3 120675240#4 -4611696#4 -4611696#3 -23755950#4 -23755950#1 -23755950#0 -66071366#4 -66071366#2 -66071366#1 -66071366#0 -389101365#4 389101365#3"/>
    </vehicle>
    <vehicle id="veh48" type="veh_passenger" depart="143.60" departLane="best">
        <route edges="-740538839#3 740538839#3 43087099#0 43087099#1 43087099#3 312533961#0 312533962#1 312533962#2 312533962#3 749876417 313039168#1 313195075 188047750 312514710#0 30826268#1 316092515 309155392 195407521 309147331#0 344594962 312357351#0"/>
    </vehicle>
    <vehicle id="veh49" type="veh_passenger" depart="146.59" departLane="best">
        <route edges="-24243107#0 -24243101 492340367#0 492340367#1 31313667#1 31313667#2 31313667#3 24243092#1 35578576#0 35578576#1 35578576#2 153698394#1 153698394#2 340498982#0 340498982#2 340498982#3 340498982#4 340498982#5 340498982#8 340498982#9 354528932 251884680 339201217#1 54048862#0 54048862#1 54048862#3 831694400 23013165#1 23013165#2 4611698#1 202156994#0 24913519#1 24913519#2 541763975 202156995#0"/>
    </vehicle>
    <vehicle id="veh50" type="veh_passenger" depart="149.58" departLane="best">
        <route edges="202156994#0 -534588621#1 -534588621#0 606078071#0 -751595930 -156364553#0 156364566#1 60333309#0 60333309#1 24992424#0 24992424#3 4612961#0 4612961#1 4612961#2 344594966 82652397#0 82652397#1 708296765#1 824274187#0"/>
    </vehicle>
    <vehicle id="veh51" type="veh_passenger" depart="152.58" departLane="best">
        <route edges="54048862#3 541763974 61584187#1 61584187#2 61584187#3 61584187#4 54048863 15971197#0 15971197#1 751602168 169195795#0 169195795#1 169195795#4 169195795#5 169195795#6 169195795#7 169195795#8 169195795#9 882389494 340498988#0 188386313#1 188386313#2 24913304#1 24913304#2 24913304#3 -108031933#1 -437325055#2 -437325056#2 -4588211#1 -4588211#0 -25945966 -4412886#1 153698415#0 153698415#2 -76212441#0"/>
    </vehicle>
    <vehicle id="veh52" type="veh_passenger" depart="155.57" departLane="best">
        <route edges="68647306#1 68647306#2 68647306#3 68647306#4 68647306#5 68647306#6 28251222#0 28251222#1 340498982#8 340498982#9 354528932 251884680 339201217#1 54048862#0 54048862#1 54048862#3 831694400 23013165#1 23013165#2 4611698#1 202156994#0 72157174#1 171826984#2 195401006 195401017#5 139877314#1 112128418#1 112128418#2 112128418#5 112128418#6 173197451#0 173197451#1 173197451#2 173197451#4 173197451#5 -566764344 492609984"/>
    </vehicle>
    <vehicle id="veh53" type="veh_passenger" depart="158.56" departLane="best">
        <route edges="111251382#3 437325051#0 -437325051#0 -111251382#3 541295978#1 389705415#1 -541295974 6228081 -222328410 -465376254 -4402228 190447768#2 195411602#1 465376240#0 195411604 83517336#0 83517336#2 153698394#1 153698394#2 340498982#0 340498982#2 340498982#3 340498982#4 340498982#5 340498982#8 340498982#9 354528932 251884680 339201217#1 54048862#0 54048862#1 54048862#3 831694400 23013165#1 23013165#2 4611698#1 202156994#0 -534588621#1 -534588621#0 606078071#0 -751595930 -156364553#0 60333311#1 60333311#2 289966097 289966281 289830064 289966845 289967595#0 82659290#0 30826268#1 316092515 309155392 902316106#1 312176585"/>
    </vehicle>
    <vehicle id="veh54" type="veh_passenger" depart="161.55" departLane="best">
        <route edges="305093247#0 305093247#2 305093328#0 305093328#1 301241483#3 728838409#0 728838409#1 728838409#2 301241681#1 301241681#3 301241681#4 246052428 301167584#0 112128419#1 112128419#2 415280722 195401013#2 195401013#3 24914992#1 171826985#1 171826985#3 24913519#1 24913519#2 541763975 202156995#0 202156995#1 4067932#1 541763974 61584187#1 61584187#2 61584187#3 61584187#4 54048863 15971197#0 15971197#1 751602168 169195795#0 169195795#1 169195795#4 169195795#5 169195795#6 169195795#7 169195795#8 169195795#9 882389494 340498988#0 188386313#1 188386313#2 24913267#0 24913267#3 4402014#0 4402014#3 326116285#0 -326116285#1"/>
    </vehicle>
    <vehicle id="veh55" type="veh_passenger" depart="164.54" departLane="best">
        <route edges="437325047#3 -437325047#3 -437325047#2 -437325047#0 4610362#0 4610362#1 4610362#2 4610362#3 4610362#4 4610362#5 4610362#6 4610362#7 4610362#8 30721662#0 30721662#1 30721662#2 30721662#3 831659093#0 831659093#1 23809670#1 23809670#2 23809670#3 28016312#0 28016312#1 -156364570#3 -156364570#1 -156364570#0 25294728 234463931#1 234463931#2 234463931#3 234463931#4 234463931#5 234463931#6 234463928#1 55741054 -19002363#2 -19002363#1 4613292#0 -24993933#4 -24993933#1 -24993933#0 -713577963 -268002748#1 -268002748#0 24914141#7"/>
    </vehicle>
    <vehicle id="veh56" type="veh_passenger" depart="167.53" departLane="best">
        <route edges="454285423#1 -454285423#1 -454285423#0 4610351#0 4610351#1 30721660#4 30721660#5 437325047#0 437325047#2 437325047#3 437325047#5 560370523 437325048#0 -437325054#1 -24243107#2 168940071#0 168940071#1 168940071#2 168940071#3 42103020#0 42103020#2 541295978#1 389705415#1 -541295974 6228081 -222328410 -465376254 -4402228 190447768#2 195411602#1 465376240#0 195411604 11483007#0 -169999355#2 188386313#1 188386313#2 24913304#1 24913304#2"/>
    </vehicle>
    <vehicle id="veh57" type="veh_passenger" depart="170.53" departLane="best">
        <route edges="-109819340#0 19801644#2 19801644#3 311690284 187111590#0 19801548#2 188046016#0 66311464#1 82639450 246044848 749876418#0 749876418#1 831658811#1 246044841#0 246044844#1 156364562#1"/>
    </vehicle>
    <vehicle id="veh59" type="veh_passenger" depart="176.51" departLane="best">
        <route edges="541295978#1 389705415#1 -541295974 6228081 -222328410 34848160#1 34848160#2 34848160#3 195105328#1 -292429063#1 24243052#0 24243052#1 24243052#2 24243052#3 688761153 465376243#1"/>