<?xml version="1.0" encoding="UTF-8"?>

<!-- generated on Mon Feb  1 12:42:30 2021 by Eclipse SUMO duarouter Version 1.7.0
<configuration xmlns:xsi="http://www.w3.org/2001/XMLSchema-instance" xsi:noNamespaceSchemaLocation="http://sumo.dlr.de/xsd/duarouterConfiguration.xsd">

    <input>
        <net-file value="/home/yoshida/carla/Co-Simulation/Sumo/osm_web_wizard/2021-02-01-12-42-25/osm.net.xml"/>
        <route-files value="/home/yoshida/carla/Co-Simulation/Sumo/osm_web_wizard/2021-02-01-12-42-25/osm.passenger.trips.xml"/>
    </input>

    <output>
        <output-file value="routes.rou.xml"/>
        <alternatives-output value="routes.rou.alt.xml"/>
    </output>

    <time>
        <begin value="0"/>
        <end value="3600"/>
    </time>

    <report>
        <no-warnings value="true"/>
        <ignore-errors value="true"/>
        <no-step-log value="true"/>
    </report>

</configuration>
-->

<routes xmlns:xsi="http://www.w3.org/2001/XMLSchema-instance" xsi:noNamespaceSchemaLocation="http://sumo.dlr.de/xsd/routes_file.xsd">
    <vType id="veh_passenger" vClass="passenger"/>
    <vehicle id="veh0" type="veh_passenger" depart="0.00" departLane="best" departSpeed="max">
        <route edges="292429056#0 292429056#3 35557143#1 389101365#0 389101365#3 66071366#0 66071366#1 66071366#2 66071366#3 4611713#0 4611708#3 -147066248#8 -147066248#7 -147066248#6 -147066248#5 -147066248#4 -147066248#3"/>
    </vehicle>
    <vehicle id="veh1" type="veh_passenger" depart="24.15" departLane="best" departSpeed="max">
        <route edges="4588219#0 4588219#1 4588219#2 840229276#1 22972473#3 22972473#4 22972473#5 389101373#0 389101373#1"/>
    </vehicle>
    <vehicle id="veh2" type="veh_passenger" depart="48.31" departLane="best">
        <route edges="-874528353#0 -4588217 171423001#0 171423001#1 171423001#2 35557143#1 389101365#0 389101365#3 66071366#0 66071366#1 66071366#2 66071366#3 4611713#0 4611708#3 -147066248#8 -147066248#7 -147066248#6 -147066248#5"/>
    </vehicle>
    <vehicle id="veh3" type="veh_passenger" depart="72.46" departLane="best" departSpeed="max">
        <route edges="-35557161#6 -35557161#5 -35557161#4 -35557161#3 -35557161#2 -35557161#1 -35557161#0 -389101365#4 -389101365#2 -35557143#4 196850609#0 196850609#1 196850609#2 171423001#0 171423001#1"/>
    </vehicle>
    <vehicle id="veh4" type="veh_passenger" depart="96.61" departLane="best">
        <route edges="-147066248#8 147066248#8 -4611708#3 -4611708#2 -4611708#1 -4611708#0 -35557161#1"/>
    </vehicle>
    <vehicle id="veh5" type="veh_passenger" depart="120.76" departLane="best" departSpeed="max">
        <route edges="292429056#0 292429056#3 35557143#1 22972473#0 22972473#3 22972473#4 22972473#5"/>
    </vehicle>
    <vehicle id="veh6" type="veh_passenger" depart="144.92" departLane="best" departSpeed="max">
        <route edges="-35557161#6 -35557161#5 -35557161#4 -35557161#3 -35557161#2 -35557161#1 -35557161#0 -389101365#4 -389101365#2 243854725#0"/>
    </vehicle>
    <vehicle id="veh7" type="veh_passenger" depart="169.07" departLane="best">
        <route edges="4611706#1 66071366#0 66071366#1 66071366#2 66071366#3 23755950#0 23755950#1 23755950#2 4611696#1 4611696#4 4611696#5 -120675240#2"/>
    </vehicle>
    <vehicle id="veh8" type="veh_passenger" depart="193.22" departLane="best">
        <route edges="4611706#0 4611706#1 -389101365#4 -389101365#2 22972473#0 -840229275 -840229276#0 -4588219#1 4588219#1"/>
    </vehicle>
    <vehicle id="veh9" type="veh_passenger" depart="217.37" departLane="best">
        <route edges="-4611714#8 -4611714#7 -4611714#6 -4611714#5 -4611714#4 -4611714#3 -4611714#2 -4611714#0 -4611713#1 -4611713#0 -66071366#4 -66071366#2 -66071366#1 -66071366#0 -389101365#4 -389101365#2 -35557143#4 -292429056#4 -292429056#2"/>
    </vehicle>
    <vehicle id="veh10" type="veh_passenger" depart="241.53" departLane="best">
        <route edges="66071366#3 4611713#0 4611713#1 4611714#0 4611714#2 4611714#3 4611714#4 -4611714#4"/>
    </vehicle>
    <vehicle id="veh11" type="veh_passenger" depart="265.68" departLane="best" departSpeed="max">
        <route edges="-22972470#1 389101373#0 389101373#1 389101373#2 23755961#0 23755961#1 23755961#2 -23017852#3 -23017852#2 -23017852#1"/>
    </vehicle>
    <vehicle id="veh12" type="veh_passenger" depart="289.83" departLane="best">
        <route edges="4611714#2 -4611714#2 -4611714#0 -4611713#1 -4611713#0 -66071366#4 -66071366#2 -66071366#1 -66071366#0 -389101365#4 -389101365#2 243854725#0 243854725#3 243854725#4"/>
    </vehicle>
    <vehicle id="veh13" type="veh_passenger" depart="313.98" departLane="best">
        <route edges="15973619#9 -15973619#9 -15973619#8 -15973619#7 -15973619#6 -15973619#5 -15973619#4 -15973619#3 -15973619#2 -15973619#1 -15973619#0 831860725#0 -23755950#4 -23755950#1 -23755950#0 -66071366#4 -66071366#2 -66071366#1 -66071366#0 -389101365#4 -389101365#2 243854725#0 243854725#3 -24242882#0 4588217 874528353#0 874528353#1 874528353#2"/>
    </vehicle>
    <vehicle id="veh14" type="veh_passenger" depart="338.14" departLane="best" departSpeed="max">
        <route edges="-47755711#2 -47755711#1 -47755711#0 47707171#0 47707171#1 47707171#2 47707171#4 47707171#5 47707171#6 47707171#7 -24997595#1 -24997595#0 389101373#0 389101373#1 389101373#2 23755961#0 23755961#1 23755961#2 -23017852#3 23017852#3"/>
    </vehicle>
    <vehicle id="veh15" type="veh_passenger" depart="362.29" departLane="best">
        <route edges="4611714#7 -4611714#7 -4611714#6 -4611714#5 -4611714#4 -4611714#3 -4611714#2 -4611714#0 -4611713#1 -4611713#0 -66071366#4 -66071366#2 -66071366#1 -66071366#0 -389101365#4 -389101365#2 -35557143#4 196850609#0 196850609#1 196850609#2 24242882#0"/>
    </vehicle>
    <vehicle id="veh16" type="veh_passenger" depart="386.44" departLane="best">
        <route edges="389101373#1 389101373#2 23755961#0 23755961#1 23755961#2 4611711#0 4611711#1 -4611713#1 4611708#3 4611708#4 734578686 15973619#1 -15973619#1"/>
    </vehicle>
    <vehicle id="veh17" type="veh_passenger" depart="410.59" departLane="best" departSpeed="max">
        <route edges="-35557161#6 -35557161#5 -35557161#4 -35557161#3 -35557161#2 -35557161#1 -35557161#0 -4611706#1"/>
    </vehicle>
    <vehicle id="veh18" type="veh_passenger" depart="434.75" departLane="best">
        <route edges="-15973619#9 -15973619#8 -15973619#7 -15973619#6 -15973619#5 -15973619#4 -15973619#3 -15973619#2 -15973619#1 -15973619#0 831860725#0 -23755950#4 -23755950#1 -23755950#0 -66071366#4 -66071366#2 -66071366#1 -66071366#0 -389101365#4 -389101365#2 22972473#0 -840229275 -840229276#0 -4588219#1 -4588219#0"/>
    </vehicle>
    <vehicle id="veh20" type="veh_passenger" depart="483.05" departLane="best" departSpeed="max">
        <route edges="292429056#0 292429056#3 35557143#1 389101365#0 389101365#3 66071366#0 66071366#1 66071366#2 66071366#3 -66071370 -474362271"/>
    </vehicle>
    <vehicle id="veh21" type="veh_passenger" depart="507.20" departLane="best">
        <route edges="-4773029#2 -4773029#1 -4773029#0 -66071366#2 -66071366#1 -66071366#0 35557161#0 35557161#1 35557161#2 35557161#3 35557161#4 -35557161#4"/>
    </vehicle>
    <vehicle id="veh22" type="veh_passenger" depart="531.36" departLane="best" departSpeed="max">
        <route edges="292429056#0 292429056#3 35557143#1 389101365#0 389101365#3 66071366#0 66071366#1 66071366#2 66071366#3 4611713#0 4611713#1 4611714#0 4611714#2 4611714#3 24509317#0"/>
    </vehicle>
    <vehicle id="veh23" type="veh_passenger" depart="555.51" departLane="best" departSpeed="max">
        <route edges="-243854725#4 -243854725#3 -243854725#2 389101365#0 389101365#3 35557161#0 35557161#1 4611708#0 4611708#1"/>
    </vehicle>
    <vehicle id="veh24" type="veh_passenger" depart="579.66" departLane="best" departSpeed="max">
        <route edges="-243854725#4 24242882#1 24242882#2 24242882#3 68647306#1 68647306#2 68647306#3 68647306#4 68647306#5 -4773029#2"/>
    </vehicle>
    <vehicle id="veh25" type="veh_passenger" depart="603.81" departLane="best">
        <route edges="196850609#2 171423001#0 171423001#1 171423001#2 35557143#1 22972473#0 22972473#3 22972473#4 22972473#5 389101373#0 389101373#1 389101373#2 389101374"/>
    </vehicle>
    <vehicle id="veh26" type="veh_passenger" depart="627.97" departLane="best" departSpeed="max">
        <route edges="-35557161#6 -35557161#5 23755961#2 4611711#0 4611711#1 -4611713#1 4611708#3 -147066248#8 -147066248#7 -147066248#6 -147066248#5"/>
    </vehicle>
    <vehicle id="veh28" type="veh_passenger" depart="676.27" departLane="best">
        <route edges="-35557161#4 -35557161#3 -35557161#2 -35557161#1 -35557161#0 -4611706#1 -4611706#0 68647306#1 68647306#2 68647306#3 68647306#4"/>
    </vehicle>
    <vehicle id="veh29" type="veh_passenger" depart="700.42" departLane="best" departSpeed="max">
        <route edges="474362271 66071370 4611713#0 4611713#1 -4611711#1 -4611711#0"/>
    </vehicle>
    <vehicle id="veh30" type="veh_passenger" depart="724.58" departLane="best" departSpeed="max">
        <route edges="292429056#0 292429056#3 35557143#1 389101365#0 389101365#3 66071366#0 66071366#1 66071366#2 66071366#3 -66071366#4"/>
    </vehicle>
    <vehicle id="veh31" type="veh_passenger" depart="748.73" departLane="best">
        <route edges="47707171#1 47707171#2 47707171#4 47707171#5 47707171#6 47707171#7 -24997595#1 -24997595#0 389101373#0 389101373#1 389101373#2 23755961#0 23755961#1 23755961#2 4611711#0 4611711#1 4611714#0 -4611718#1 -4611718#0 15973619#9 15973619#10 15973619#11"/>
    </vehicle>
    <vehicle id="veh32" type="veh_passenger" depart="772.88" departLane="best">
        <route edges="-4611706#1 4611706#1 -389101365#4 -389101365#2 22972473#0 -840229275 -840229276#0 -4588219#1"/>
    </vehicle>
    <vehicle id="veh33" type="veh_passenger" depart="797.03" departLane="best">
        <route edges="22972473#3 -840229277 -840229278#0 -4588222#0"/>
    </vehicle>
    <vehicle id="veh34" type="veh_passenger" depart="821.19" departLane="best">
        <route edges="23755950#1 -23755950#1 -23755950#0 -66071366#4 -66071366#2 -66071366#1 -66071366#0 -389101365#4 -389101365#2 22972473#0 22972473#3 22972473#4 22972473#5 24997595#0 24997595#1 47707170#0 47707170#1 47707170#3 47707170#4 47707170#5 47707170#6 47707170#7 47755711#0 47755711#1 47755711#2"/>
    </vehicle>
    <vehicle id="veh35" type="veh_passenger" depart="845.34" departLane="best" departSpeed="max">
        <route edges="-22972470#1 -22972473#5 -22972473#4 -22972473#3 -22972473#2 389101365#0 389101365#3 66071366#0 66071366#1 66071366#2 66071366#3 23755950#0 23755950#1 23755950#2 -831860725#2 734578686 15973619#1 -15973619#1"/>
    </vehicle>
    <vehicle id="veh36" type="veh_passenger" depart="869.49" departLane="best">
        <route edges="-23017852#0 4611710#1 4611710#2 -35557161#3 -35557161#2 -35557161#1 -35557161#0 -389101365#4 -389101365#2 -35557143#4 -292429056#4 292429056#3"/>
    </vehicle>
    <vehicle id="veh37" type="veh_passenger" depart="893.64" departLane="best">
        <route edges="-15973619#4 -15973619#3 -15973619#2 -15973619#1 -15973619#0 831860725#0 -23755950#4 -23755950#1 -23755950#0 -66071366#4 -66071366#2 -66071366#1 -66071366#0 -389101365#4 -389101365#2 22972473#0 22972473#3 22972473#4 22972473#5 24997595#0 24997595#1 47707170#0 47707170#1 47707170#3 47707170#4 47707170#5 47707170#6 47707170#7 47755711#0 -47755711#0"/>
    </vehicle>
    <vehicle id="veh38" type="veh_passenger" depart="917.80" departLane="best">
        <route edges="874528353#0 -874528353#0 -4588217 171423001#0 171423001#1 171423001#2 35557143#1 22972473#0 22972473#3 22972473#4 22972473#5 22972470#1"/>
    </vehicle>
    <vehicle id="veh39" type="veh_passenger" depart="941.95" departLane="best">
        <route edges="-147066248#3 147066248#3 147066248#4 147066248#5 147066248#6 147066248#7 147066248#8 4611708#4 831860725#0 -23755950#4 -23755950#1 -23755950#0 -66071366#4 -66071366#2 -66071366#1 -66071366#0 -4611706#1 -4611706#0 4611706#0"/>
    </vehicle>
    <vehicle id="veh40" type="veh_passenger" depart="966.10" departLane="best" departSpeed="max">
        <route edges="-882389497 171423001#0 171423001#1 171423001#2 35557143#1 22972473#0 22972473#3 22972473#4 22972473#5 389101373#0 389101373#1 389101373#2 389101374 766868095#1 766868095#2"/>
    </vehicle>
    <vehicle id="veh41" type="veh_passenger" depart="990.25" departLane="best" departSpeed="max">
        <route edges="474362271 66071370 -66071366#4 -66071366#2 -66071366#1 -66071366#0 -389101365#4 -389101365#2 22972473#0 22972473#3 -840229277 -840229278#0 -4588222#0"/>
    </vehicle>
    <vehicle id="veh42" type="veh_passenger" depart="1014.41" departLane="best">
        <route edges="147066248#8 4611708#4 831860725#0 -23755950#4 -23755950#1 -23755950#0 -66071366#4 -66071366#2 -66071366#1 -66071366#0 -389101365#4 -389101365#2 -35557143#4 -292429056#4 -292429056#2"/>
    </vehicle>
    <vehicle id="veh43" type="veh_passenger" depart="1038.56" departLane="best">
        <route edges="47707171#0 47707171#1 47707171#2 47707171#4 47707171#5 47707171#6 47707171#7 -24997595#1 -24997595#0 -22972473#5 -22972473#4 -22972473#3 -22972473#2 389101365#0 389101365#3 66071366#0 66071366#1 66071366#2 4773029#0 4773029#1 4773029#2"/>
    </vehicle>
    <vehicle id="veh44" type="veh_passenger" depart="1062.71" departLane="best" departSpeed="max">
        <route edges="-4611712 -23755961#2 -35557161#4 -35557161#3 -35557161#2 -35557161#1 35557161#1"/>
    </vehicle>
    <vehicle id="veh45" type="veh_passenger" depart="1086.86" departLane="best">
        <route edges="24242882#3 -24242882#3 -24242882#2 -24242882#1 -243854725#3 -243854725#2 22972473#0 22972473#3 22972473#4 22972473#5 24997595#0 24997595#1 -24997595#1"/>
    </vehicle>
    <vehicle id="veh47" type="veh_passenger" depart="1135.17" departLane="best" departSpeed="max">
        <route edges="4611693#0 4611693#1 -23755950#4 -23755950#1 -23755950#0 -66071366#4 -66071366#2 -66071366#1 -66071366#0 -389101365#4 -389101365#2 22972473#0 22972473#3 22972473#4 22972473#5 22972470#1"/>
    </vehicle>
    <vehicle id="veh48" type="veh_passenger" depart="1159.32" departLane="best" departSpeed="max">
        <route edges="474362271 66071370 -66071366#4 -66071366#2 -66071366#1 -66071366#0 -389101365#4 -389101365#2 22972473#0 22972473#3 22972473#4 22972473#5 24997595#0 24997595#1 47707170#0 47707170#1 47707170#3 47707170#4 47707170#5 47707170#6"/>
    </vehicle>
    <vehicle id="veh49" type="veh_passenger" depart="1183.47" departLane="best" departSpeed="max">
        <route edges="-4611712 4611711#0 4611711#1 -4611713#1 4611708#3 4611708#4 734578686 15973619#1 15973619#2 -15973619#2"/>
    </vehicle>
    <vehicle id="veh50" type="veh_passenger" depart="1207.63" departLane="best" departSpeed="max">
        <route edges="-22972470#1 -22972473#5 -22972473#4 -22972473#3 -22972473#2 389101365#0 389101365#3 66071366#0 66071366#1 66071366#2 66071366#3 23755950#0 23755950#1 23755950#2 -831860725#2 734578686 15973619#1 15973619#2 15973619#3 15973619#4"/>
    </vehicle>
    <vehicle id="veh52" type="veh_passenger" depart="1255.93" departLane="best">
        <route edges="120675240#3 -4611696#4 -4611696#3 -23755950#4 -23755950#1 -23755950#0 4611713#0 4611713#1 23017853 23017852#1 23017852#2"/>
    </vehicle>
    <vehicle id="veh53" type="veh_passenger" depart="1280.08" departLane="best">
        <route edges="-874528353#0 -4588217 171423001#0 171423001#1 171423001#2 35557143#1 389101365#0 389101365#3 35557161#0 35557161#1 35557161#2 35557161#3 35557161#4 35557161#5 -35557161#5"/>
    </vehicle>
    <vehicle id="veh54" type="veh_passenger" depart="1304.24" departLane="best">
        <route edges="171423001#0 171423001#1 171423001#2 35557143#1 389101365#0 389101365#3 35557161#0 35557161#1 4611708#0 4611708#1"/>
    </vehicle>
    <vehicle id="veh55" type="veh_passenger" depart="1328.39" departLane="best">
        <route edges="874528353#0 -874528353#0 -4588217 171423001#0 171423001#1 171423001#2 35557143#1 389101365#0 389101365#3 35557161#0 35557161#1 35557161#2 35557161#3 35557161#4 35557161#5"/>
    </vehicle>
    <vehicle id="veh56" type="veh_passenger" depart="1352.54" departLane="best">
        <route edges="-23017853 -4611713#1 -4611713#0 -66071370 -43231842#2 -43231842#1"/>
    </vehicle>
    <vehicle id="veh57" type="veh_passenger" depart="1376.69" departLane="best">
        <route edges="-4611714#8 -4611714#7 -4611714#6 -4611714#5 -4611714#4 -4611714#3 -4611714#2 -4611714#0 -4611713#1 -4611713#0 -66071366#4 -66071366#2 -66071366#1 -66071366#0 -389101365#4 -389101365#2 243854725#0"/>
    </vehicle>
    <vehicle id="veh58" type="veh_passenger" depart="1400.85" departLane="best" departSpeed="max">
        <route edges="-35557161#6 -35557161#5 -35557161#4 -35557161#3 -35557161#2 -35557161#1 -35557161#0 66071366#0 66071366#1 66071366#2 66071366#3 -66071370 -43231842#2 -43231842#1 -43231842#0"/>
    </vehicle>
    <vehicle id="veh59" type="veh_passenger" depart="1425.00" departLane="best">
        <route edges="-15973619#6 -15973619#5 -15973619#4 -15973619#3 -15973619#2 -15973619#1 -15973619#0 831860725#0 -23755950#4 -23755950#1 -23755950#0 -66071366#4 -66071366#2 -66071366#1 -66071366#0 -389101365#4 -389101365#2 -35557143#4 35557143#1"/>
    </vehicle>
    <vehicle id="veh60" type="veh_passenger" depart="1449.15" departLane="best" departSpeed="max">
        <route edges="-35557161#6 -35557161#5 -35557161#4 -35557161#3 -35557161#2 -35557161#1 -35557161#0 66071366#0 66071366#1 66071366#2 66071366#3 23755950#0 23755950#1 23755950#2 4611696#1 54781811#0 54781811#1"/>
    </vehicle>
    <vehicle id="veh61" type="veh_passenger" depart="1473.30" departLane="best">
        <route edges="-43231842#0 4611693#1 -23755950#4 -23755950#1 -23755950#0 -66071366#4 -66071366#2 -66071366#1 -66071366#0 -389101365#4 -389101365#2 389101365#0"/>
    </vehicle>
    <vehicle id="veh62" type="veh_passenger" depart="1497.46" departLane="best">
        <route edges="-35557161#5 -35557161#4 -35557161#3 -35557161#2 -35557161#1 -35557161#0 -4611706#1 -4611706#0 -24242882#3 -24242882#2"/>
    </vehicle>
    <vehicle id="veh63" type="veh_passenger" depart="1521.61" departLane="best">
        <route edges="4773029#1 -4773029#1 -4773029#0 -66071366#2 -66071366#1 -66071366#0 35557161#0 35557161#1 35557161#2 35557161#3 35557161#4 -23755961#1 23755961#1"/>
    </vehicle>
    <vehicle id="veh64" type="veh_passenger" depart="1545.76" departLane="best" departSpeed="max">
        <route edges="120675240#0 120675240#3 -4611696#4 -4611696#3 -831860725#2 734578686 15973619#1 15973619#2 15973619#3 15973619#4 15973619#5 15973619#6 15973619#7 15973619#8 15973619#9 -24509317#1 -24509317#0 4611714#4 4611714#5"/>
    </vehicle>
    <vehicle id="veh65" type="veh_passenger" depart="1569.91" departLane="best">
        <route edges="-22972473#2 389101365#0 389101365#3 66071366#0 66071366#1 66071366#2 66071366#3 23755950#0 23755950#1 23755950#2 -831860725#2 734578686 15973619#1 15973619#2 15973619#3 15973619#4 15973619#5 15973619#6 15973619#7 15973619#8 4611718#0 147066248#0 147066248#1 147066248#2"/>
    </vehicle>
    <vehicle id="veh66" type="veh_passenger" depart="1594.07" departLane="best">
        <route edges="-874528353#0 -4588217 171423001#0 171423001#1 171423001#2 35557143#1 389101365#0 389101365#3 66071366#0 66071366#1 66071366#2 66071366#3 23755950#0 23755950#1 23755950#2 -831860725#2 734578686 15973619#1 15973619#2 15973619#3 15973619#4 15973619#5 15973619#6 15973619#7 15973619#8 15973619#9 15973619#10 15973619#11 15973619#12 15973619#13"/>
    </vehicle>
    <vehicle id="veh67" type="veh_passenger" depart="1618.22" departLane="best" departSpeed="max">
        <route edges="4588219#0 4588219#1 4588219#2 840229276#1 -22972473#2 389101365#0 389101365#3"/>
    </vehicle>
    <vehicle id="veh68" type="veh_passenger" depart="1642.37" departLane="best">
        <route edges="766868095#2 389101373#0 389101373#1 389101373#2 23755961#0 23755961#1 23755961#2 -23017852#3 -23017852#2"/>
    </vehicle>
    <vehicle id="veh69" type="veh_passenger" depart="1666.52" departLane="best">
        <route edges="-66071366#4 66071366#3 4611713#0 4611713#1 4611714#0 4611714#2 4611714#3 4611714#4 4611714#5 -4611714#5"/>
    </vehicle>
    <vehicle id="veh70" type="veh_passenger" depart="1690.68" departLane="best">
        <route edges="4611714#7 -4611714#7 -4611714#6 -4611714#5 -4611714#4 -4611714#3 -4611714#2 -4611714#0 -4611713#1 -4611713#0 -66071366#4 -66071366#2 -66071366#1 -66071366#0 -389101365#4 -389101365#2 22972473#0 -840229275 -840229276#0 -4588219#1"/>
    </vehicle>
    <vehicle id="veh71" type="veh_passenger" depart="1714.83" departLane="best">
        <route edges="-292429056#4 292429056#3 35557143#1 389101365#0 389101365#3 66071366#0 66071366#1 66071366#2 66071366#3 4611713#0 4611708#3 -147066248#8 147066248#8"/>
    </vehicle>
    <vehicle id="veh73" type="veh_passenger" depart="1763.13" departLane="best">
        <route edges="-4588217 171423001#0 171423001#1 171423001#2 35557143#1 389101365#0 389101365#3 66071366#0 66071366#1 66071366#2"/>
    </vehicle>
    <vehicle id="veh74" type="veh_passenger" depart="1787.29" departLane="best" departSpeed="max">
        <route edges="-882389497 171423001#0 171423001#1 171423001#2 35557143#1 389101365#0 389101365#3 66071366#0 66071366#1 66071366#2 4773029#0 4773029#1"/>
    </vehicle>
    <vehicle id="veh75" type="veh_passenger" depart="1811.44" departLane="best">
        <route edges="196850609#0 196850609#1 196850609#2 171423001#0 171423001#1 171423001#2 35557143#1 389101365#0 389101365#3 66071366#0 66071366#1 66071366#2 66071366#3 23755950#0 23755950#1 23755950#2 -831860725#2 734578686 15973619#1 15973619#2 15973619#3 15973619#4 15973619#5 15973619#6 15973619#7 15973619#8 15973619#9 15973619#10 15973619#11 -15973619#11"/>
    </vehicle>
    <vehicle id="veh76" type="veh_passenger" depart="1835.59" departLane="best">
        <route edges="874528353#1 -874528353#1 -874528353#0 -4588217 171423001#0 171423001#1 171423001#2 35557143#1 22972473#0 22972473#3 22972473#4 22972473#5 24997595#0 24997595#1 47707170#0 47707170#1 47707170#3 47707170#4 47707170#5 47707170#6 47707170#7"/>
    </vehicle>
    <vehicle id="veh77" type="veh_passenger" depart="1859.74" departLane="best">
        <route edges="4611714#2 -4611714#2 -4611714#0 -4611713#1 -4611713#0 -66071366#4 -66071366#2 -66071366#1 -66071366#0 -389101365#4 -389101365#2 -35557143#4 -292429056#4 -292429056#2"/>
    </vehicle>
    <vehicle id="veh78" type="veh_passenger" depart="1883.90" departLane="best">
        <route edges="147066248#3 147066248#4 147066248#5 147066248#6 147066248#7 147066248#8 4611708#4 831860725#0 -23755950#4 -23755950#1 -23755950#0 -66071366#4 -66071366#2 -66071366#1 -66071366#0 -389101365#4 -389101365#2"/>
    </vehicle>
    <vehicle id="veh79" type="veh_passenger" depart="1908.05" departLane="best" departSpeed="max">
        <route edges="-47755711#2 -47755711#1 -47755711#0 47707171#0 47707171#1 47707171#2 47707171#4 47707171#5 47707171#6 47707171#7 -24997595#1 -24997595#0 -22972473#5 -22972473#4 -22972473#3 -22972473#2 -35557143#4 196850609#0 196850609#1 196850609#2 882389497"/>
    </vehicle>
    <vehicle id="veh80" type="veh_passenger" depart="1932.20" departLane="best">
        <route edges="-4611708#0 4611708#0 4611708#1 4611708#2 4611713#1 4611714#0 4611714#2 4611714#3 4611714#4 4611714#5"/>
    </vehicle>
    <vehicle id="veh81" type="veh_passenger" depart="1956.35" departLane="best" departSpeed="max">
        <route edges="-882389497 171423001#0 171423001#1 171423001#2 35557143#1 389101365#0 389101365#3 66071366#0 66071366#1 66071366#2 66071366#3 23755950#0 23755950#1 23755950#2 4611696#1 4611696#4 4611696#5 120675240#3"/>
    </vehicle>
    <vehicle id="veh82" type="veh_passenger" depart="1980.51" departLane="best">
        <route edges="66071366#3 -66071366#4 -66071366#2 -66071366#1 -66071366#0 -389101365#4 -389101365#2 -35557143#4 196850609#0 196850609#1 196850609#2 882389497"/>
    </vehicle>
    <vehicle id="veh83" type="veh_passenger" depart="2004.66" departLane="best">
        <route edges="171423001#1 171423001#2 35557143#1 389101365#0 389101365#3 66071366#0 66071366#1 66071366#2 66071366#3 4611713#0 4611713#1 -4611711#1 4611711#1"/>
    </vehicle>
    <vehicle id="veh84" type="veh_passenger" depart="2028.81" departLane="best" departSpeed="max">
        <route edges="-15973619#13 -15973619#12 -15973619#11 -15973619#10 -15973619#9 -15973619#8 -15973619#7 -15973619#6 -15973619#5 -15973619#4 -15973619#3 -15973619#2 -15973619#1 -15973619#0 831860725#0 -23755950#4 -23755950#1 -23755950#0 -66071366#4 -66071366#2 -66071366#1 -66071366#0 -4611706#1 -4611706#0 -24242882#3 -24242882#2 24242882#2"/>
    </vehicle>
    <vehicle id="veh85" type="veh_passenger" depart="2052.96" departLane="best">
        <route edges="147066248#8 -4611708#3 4611713#1 -4611711#1 -4611711#0 -23755961#2 -23755961#1 -23755961#0 389101374 766868095#1 766868095#2 24997595#0 24997595#1 47707170#0 47707170#1 47707170#3 47707170#4 47707170#5 47707170#6 47707170#7 47755711#0 -47755711#0 47707171#0 47707171#1 47707171#2 47707171#4 47707171#5 47707171#6"/>
    </vehicle>
    <vehicle id="veh86" type="veh_passenger" depart="2077.12" departLane="best">
        <route edges="-15973619#9 -15973619#8 -15973619#7 -15973619#6 -15973619#5 -15973619#4 -15973619#3 -15973619#2 -15973619#1 -15973619#0 831860725#0 -23755950#4 -23755950#1 -23755950#0 -66071366#4 -66071366#2 -66071366#1 -66071366#0 -389101365#4 -389101365#2 -35557143#4 -292429056#4"/>
    </vehicle>
    <vehicle id="veh87" type="veh_passenger" depart="2101.27" departLane="best">
        <route edges="-389101365#4 389101365#3 35557161#0 35557161#1 35557161#2 35557161#3 35557161#4 -23755961#1"/>
    </vehicle>
    <vehicle id="veh88" type="veh_passenger" depart="2125.42" departLane="best">
        <route edges="47707170#0 47707170#1 47707170#3 47707170#4 47707170#5 47707170#6 47707170#7 47755711#0 -47755711#0 47707171#0 47707171#1 47707171#2 47707171#4 47707171#5 47707171#6 47707171#7 -24997595#1 -24997595#0 -22972473#5 -22972473#4 -22972473#3 -840229275 -840229276#0 -4588219#1 -4588219#0"/>
    </vehicle>
    <vehicle id="veh89" type="veh_passenger" depart="2149.57" departLane="best">
        <route edges="-840229278#0 4588222#1 840229278#1 -22972473#3 -22972473#2 243854725#0 243854725#3 24242882#1 24242882#2"/>
    </vehicle>
    <vehicle id="veh90" type="veh_passenger" depart="2173.73" departLane="best">
        <route edges="15973619#4 -15973619#4 -15973619#3 -15973619#2 -15973619#1 -15973619#0 831860725#0 -23755950#4 -23755950#1 -23755950#0 -66071366#4 -66071366#2 -66071366#1 -66071366#0 -4611706#1 -4611706#0 68647306#1"/>
    </vehicle>
    <vehicle id="veh91" type="veh_passenger" depart="2197.88" departLane="best">
        <route edges="-35557161#1 -35557161#0 66071366#0 66071366#1 66071366#2 66071366#3 23755950#0 23755950#1 23755950#2 4611696#1 4611696#4 4611696#5"/>
    </vehicle>
    <vehicle id="veh92" type="veh_passenger" depart="2222.03" departLane="best">
        <route edges="35557143#1 389101365#0 389101365#3 66071366#0 66071366#1 66071366#2 66071366#3 23755950#0 23755950#1 23755950#2 -831860725#2 -4611708#4 -4611708#3"/>
    </vehicle>
    <vehicle id="veh93" type="veh_passenger" depart="2246.19" departLane="best">
        <route edges="-15973619#7 15973619#7 15973619#8 4611718#0 4611718#1 -4611714#0 -4611711#1 -4611711#0 -23755961#2 35557161#5 -35557161#5"/>
    </vehicle>
    <vehicle id="veh94" type="veh_passenger" depart="2270.34" departLane="best" departSpeed="max">
        <route edges="474362271 66071370 -66071366#4 -66071366#2 -66071366#1 -66071366#0 -389101365#4 -389101365#2 22972473#0 22972473#3 22972473#4 22972473#5 24997595#0 24997595#1 47707170#0 47707170#1 47707170#3 47707170#4 47707170#5 47707170#6 47707170#7 47755711#0"/>
    </vehicle>
    <vehicle id="veh95" type="veh_passenger" depart="2294.49" departLane="best">
        <route edges="-4773029#2 -4773029#1 -4773029#0 -66071366#2 -66071366#1 -66071366#0 -389101365#4 -389101365#2 -35557143#4 -292429056#4 -292429056#2"/>
    </vehicle>
    <vehicle id="veh96" type="veh_passenger" depart="2318.64" departLane="best">
        <route edges="4611711#0 -4611711#0 -23755961#2 -23755961#1 -23755961#0 389101374 766868095#1 766868095#2 -22972473#5 -22972473#4 -840229277 -840229278#0 4588222#1"/>
    </vehicle>
    <vehicle id="veh97" type="veh_passenger" depart="2342.80" departLane="best" departSpeed="max">
        <route edges="292429056#0 292429056#3 35557143#1 389101365#0 389101365#3 66071366#0 66071366#1 66071366#2 66071366#3 23755950#0 23755950#1 23755950#2 4611696#1 4611696#4 4611696#5 -120675240#2"/>
    </vehicle>
    <vehicle id="veh98" type="veh_passenger" depart="2366.95" departLane="best">
        <route edges="292429056#3 196850609#0 196850609#1 196850609#2 24242882#0 24242882#1 24242882#2 24242882#3 68647306#1 68647306#2 68647306#3"/>
    </vehicle>
    <vehicle id="veh99" type="veh_passenger" depart="2391.10" departLane="best">
        <route edges="-23755961#0 23755961#0 23755961#1 -35557161#4 -35557161#3 -35557161#2 -35557161#1 -35557161#0 66071366#0 66071366#1 66071366#2 66071366#3 23755950#0 23755950#1 23755950#2 -23755950#4"/>
    </vehicle>
    <vehicle id="veh100" type="veh_passenger" depart="2415.25" departLane="best">
        <route edges="-22972473#5 22972473#5 389101373#0 389101373#1 389101373#2 23755961#0 23755961#1 23755961#2 -23017852#3 23017852#3"/>
    </vehicle>
    <vehicle id="veh101" type="veh_passenger" depart="2439.41" departLane="best">
        <route edges="-4611708#2 -4611708#1 -4611708#0 -35557161#1 -35557161#0 -389101365#4 -389101365#2 243854725#0 243854725#3 243854725#4"/>
    </vehicle>
    <vehicle id="veh102" type="veh_passenger" depart="2463.56" departLane="best">
        <route edges="43231842#2 66071370 -66071366#4 -66071366#2 -66071366#1 -66071366#0 35557161#0 35557161#1 35557161#2 -35557161#2"/>
    </vehicle>