<?xml version="1.0" encoding="UTF-8"?>

<!-- generated on Fri Jan 29 16:01:09 2021 by Eclipse SUMO duarouter Version 1.7.0
<configuration xmlns:xsi="http://www.w3.org/2001/XMLSchema-instance" xsi:noNamespaceSchemaLocation="http://sumo.dlr.de/xsd/duarouterConfiguration.xsd">

    <input>
        <net-file value="/home/yoshida/carla/Co-Simulation/Sumo/osm_web_wizard/2021-01-29-16-00-48/osm.net.xml"/>
        <route-files value="/home/yoshida/carla/Co-Simulation/Sumo/osm_web_wizard/2021-01-29-16-00-48/osm.passenger.trips.xml"/>
    </input>

    <output>
        <output-file value="/home/yoshida/carla/Co-Simulation/Sumo/osm_web_wizard/2021-01-29-16-00-48/osm.passenger.trips.xml.tmp"/>
        <write-trips value="true"/>
    </output>

    <time>
        <begin value="0"/>
        <end value="3600"/>
    </time>

    <report>
        <no-warnings value="true"/>
        <ignore-errors value="true"/>
        <no-step-log value="true"/>
    </report>

</configuration>
-->

<routes xmlns:xsi="http://www.w3.org/2001/XMLSchema-instance" xsi:noNamespaceSchemaLocation="http://sumo.dlr.de/xsd/routes_file.xsd">
    <vType id="veh_passenger" vClass="passenger"/>
    <trip id="veh0" type="veh_passenger" depart="0.00" departLane="best" from="307098733#1" to="-153698390#1"/>
    <trip id="veh1" type="veh_passenger" depart="3.19" departLane="best" from="-628330888" to="-4773029#2"/>
    <trip id="veh2" type="veh_passenger" depart="6.38" departLane="best" from="344594961" to="340498982#5"/>
    <trip id="veh4" type="veh_passenger" depart="12.76" departLane="best" from="187103792#1" to="-156364570#3"/>
    <trip id="veh5" type="veh_passenger" depart="15.95" departLane="best" from="-4611708#2" to="246044844#1"/>
    <trip id="veh6" type="veh_passenger" depart="19.14" departLane="best" from="-156364570#0" to="-4611706#0"/>
    <trip id="veh7" type="veh_passenger" depart="22.34" departLane="best" from="309155392" to="28016312#0"/>
    <trip id="veh8" type="veh_passenger" depart="25.53" departLane="best" from="-4611713#0" to="301733776"/>
    <trip id="veh9" type="veh_passenger" depart="28.72" departLane="best" from="4610472#0" to="-111833186#0"/>
    <trip id="veh10" type="veh_passenger" depart="31.91" departLane="best" from="4610362#4" to="35557161#2"/>
    <trip id="veh11" type="veh_passenger" depart="35.10" departLane="best" from="153698387#0" to="-34848160#2"/>
    <trip id="veh12" type="veh_passenger" depart="38.29" departLane="best" from="819027709#0" to="168943642#1"/>
    <trip id="veh13" type="veh_passenger" depart="41.48" departLane="best" from="-23386522#5" to="-24241790#2"/>
    <trip id="veh14" type="veh_passenger" depart="44.67" departLane="best" from="4610362#6" to="437325056#0"/>
    <trip id="veh15" type="veh_passenger" depart="47.86" departLane="best" from="24540242#1" to="831659093#1"/>
    <trip id="veh16" type="veh_passenger" depart="51.05" departLane="best" from="169195795#1" to="288584715"/>
    <trip id="veh17" type="veh_passenger" depart="54.24" departLane="best" from="4612961#1" to="311690284"/>
    <trip id="veh18" type="veh_passenger" depart="57.43" departLane="best" departSpeed="max" from="465376252#0" to="295445243"/>
    <trip id="veh19" type="veh_passenger" depart="60.62" departLane="best" departSpeed="max" from="330460453#0" to="-168943642#5"/>
    <trip id="veh20" type="veh_passenger" depart="63.82" departLane="best" from="-4612968#2" to="132600840#0"/>
    <trip id="veh21" type="veh_passenger" depart="67.01" departLane="best" from="-225400578#2" to="-6227658#3"/>
    <trip id="veh22" type="veh_passenger" depart="70.20" departLane="best" from="-234463931#5" to="112128418#6"/>
    <trip id="veh23" type="veh_passenger" depart="73.39" departLane="best" from="305093328#0" to="176043807#0"/>
    <trip id="veh24" type="veh_passenger" depart="76.58" departLane="best" from="168942727#1" to="-4612970#0"/>
    <trip id="veh25" type="veh_passenger" depart="79.77" departLane="best" from="-55741054" to="753730627#1"/>
    <trip id="veh26" type="veh_passenger" depart="82.96" departLane="best" departSpeed="max" from="-35556702#2" to="437325055#0"/>
    <trip id="veh27" type="veh_passenger" depart="86.15" departLane="best" from="-326116285#2" to="188046016#0"/>
    <trip id="veh28" type="veh_passenger" depart="89.34" departLane="best" from="840860363#0" to="315214529#8"/>
    <trip id="veh29" type="veh_passenger" depart="92.53" departLane="best" departSpeed="max" from="24914141#0" to="344594962"/>
    <trip id="veh30" type="veh_passenger" depart="95.72" departLane="best" from="4612981#1" to="4611696#1"/>
    <trip id="veh31" type="veh_passenger" depart="98.91" departLane="best" from="-4612969#0" to="-15973619#1"/>
    <trip id="veh32" type="veh_passenger" depart="102.10" departLane="best" from="-4610375" to="756306892"/>
    <trip id="veh33" type="veh_passenger" depart="105.30" departLane="best" from="492609984" to="15971197#0"/>
    <trip id="veh34" type="veh_passenger" depart="108.49" departLane="best" from="310176513#4" to="190447768#2"/>
    <trip id="veh35" type="veh_passenger" depart="111.68" departLane="best" from="66071366#0" to="236092221#1"/>
    <trip id="veh36" type="veh_passenger" depart="114.87" departLane="best" from="28016312#1" to="6227658#1"/>
    <trip id="veh38" type="veh_passenger" depart="121.25" departLane="best" from="-23386522#10" to="-169999355#2"/>
    <trip id="veh39" type="veh_passenger" depart="124.44" departLane="best" departSpeed="max" from="-24241762#2" to="312533961#0"/>
    <trip id="veh40" type="veh_passenger" depart="127.63" departLane="best" from="454285423#1" to="202156991#2"/>
    <trip id="veh41" type="veh_passenger" depart="130.82" departLane="best" from="-194069450#2" to="188047750"/>
    <trip id="veh44" type="veh_passenger" depart="140.39" departLane="best" departSpeed="max" from="315214529#0" to="26506567#1"/>
    <trip id="veh45" type="veh_passenger" depart="143.58" departLane="best" from="-55741054" to="316092515"/>
    <trip id="veh47" type="veh_passenger" depart="149.97" departLane="best" from="195401013#2" to="82639450"/>
    <trip id="veh48" type="veh_passenger" depart="153.16" departLane="best" from="492340367#1" to="100405009#2"/>
    <trip id="veh49" type="veh_passenger" depart="156.35" departLane="best" from="23755950#0" to="-437325055#2"/>
    <trip id="veh50" type="veh_passenger" depart="159.54" departLane="best" from="625843712" to="54048862#1"/>
    <trip id="veh51" type="veh_passenger" depart="162.73" departLane="best" from="100405009#1" to="315214529#3"/>
    <trip id="veh52" type="veh_passenger" depart="165.92" departLane="best" from="292429062#3" to="-339201177#3"/>
    <trip id="veh53" type="veh_passenger" depart="169.11" departLane="best" from="415280722" to="26506567#1"/>
    <trip id="veh55" type="veh_passenger" depart="175.49" departLane="best" from="-109819340#0" to="164039095#1"/>
    <trip id="veh56" type="veh_passenger" depart="178.68" departLane="best" from="-147066248#2" to="749876418#1"/>
    <trip id="veh57" type="veh_passenger" depart="181.87" departLane="best" from="505475202#1" to="4773465#1"/>
    <trip id="veh58" type="veh_passenger" depart="185.06" departLane="best" from="111251382#3" to="-176273730#2"/>
    <trip id="veh59" type="veh_passenger" depart="188.26" departLane="best" from="493008124#0" to="819027709#0"/>
    <trip id="veh60" type="veh_passenger" depart="191.45" departLane="best" departSpeed="max" from="-22972473#2" to="24240246#3"/>
    <trip id="veh61" type="veh_passenger" depart="194.64" departLane="best" from="-195397541#0" to="4610355#3"/>
    <trip id="veh62" type="veh_passenger" depart="197.83" departLane="best" from="42103020#2" to="-310177222#3"/>
    <trip id="veh63" type="veh_passenger" depart="201.02" departLane="best" from="202817674#0" to="288406367"/>
    <trip id="veh64" type="veh_passenger" depart="204.21" departLane="best" from="-52328295#2" to="54048862#3"/>
    <trip id="veh65" type="veh_passenger" depart="207.40" departLane="best" from="187111590#0" to="-4612970#1"/>
    <trip id="veh66" type="veh_passenger" depart="210.59" departLane="best" from="246044844#1" to="437325056#0"/>
    <trip id="veh67" type="veh_passenger" depart="213.78" departLane="best" from="-454285423#0" to="156364566#1"/>
    <trip id="veh68" type="veh_passenger" depart="216.97" departLane="best" from="84960597#1" to="318915601"/>
    <trip id="veh70" type="veh_passenger" depart="223.35" departLane="best" from="-24913267#2" to="-492340367#0"/>
    <trip id="veh71" type="veh_passenger" depart="226.54" departLane="best" from="147066248#3" to="301733776"/>
    <trip id="veh73" type="veh_passenger" depart="232.93" departLane="best" from="-195397561#1" to="312533962#2"/>
    <trip id="veh74" type="veh_passenger" depart="236.12" departLane="best" from="-4612969#0" to="66071373#1"/>
    <trip id="veh75" type="veh_passenger" depart="239.31" departLane="best" departSpeed="max" from="465376252#0" to="-195397561#3"/>
    <trip id="veh77" type="veh_passenger" depart="245.69" departLane="best" from="-4610610#0" to="-31313667#1"/>
    <trip id="veh78" type="veh_passenger" depart="248.88" departLane="best" from="728838409#0" to="29290632#0"/>
    <trip id="veh79" type="veh_passenger" depart="252.07" departLane="best" from="202156995#1" to="4611713#1"/>
    <trip id="veh80" type="veh_passenger" depart="255.26" departLane="best" from="4610362#7" to="-4588217"/>
    <trip id="veh82" type="veh_passenger" depart="261.64" departLane="best" from="188044903#0" to="23813206#0"/>
    <trip id="veh83" type="veh_passenger" depart="264.83" departLane="best" from="831694400" to="-24242882#1"/>
    <trip id="veh84" type="veh_passenger" depart="268.02" departLane="best" from="176043807#3" to="169195795#0"/>
    <trip id="veh85" type="veh_passenger" depart="271.22" departLane="best" departSpeed="max" from="465376252#0" to="-76212441#0"/>
    <trip id="veh86" type="veh_passenger" depart="274.41" departLane="best" from="-437325047#2" to="23386522#2"/>
    <trip id="veh87" type="veh_passenger" depart="277.60" departLane="best" from="187103792#1" to="112128419#1"/>
    <trip id="veh88" type="veh_passenger" depart="280.79" departLane="best" from="190447767" to="495066404"/>
    <trip id="veh89" type="veh_passenger" depart="283.98" departLane="best" from="24913519#2" to="-176043794"/>
    <trip id="veh90" type="veh_passenger" depart="287.17" departLane="best" from="882389494" to="4790825#1"/>
    <trip id="veh91" type="veh_passenger" depart="290.36" departLane="best" from="82652397#1" to="749876417"/>
    <trip id="veh92" type="veh_passenger" depart="293.55" departLane="best" from="461526152#0" to="-38912785"/>
    <trip id="veh93" type="veh_passenger" depart="296.74" departLane="best" from="23121445#1" to="-4613298"/>
    <trip id="veh94" type="veh_passenger" depart="299.93" departLane="best" from="176043807#0" to="-176273730#2"/>
    <trip id="veh95" type="veh_passenger" depart="303.12" departLane="best" from="169195795#1" to="84960597#0"/>
    <trip id="veh96" type="veh_passenger" depart="306.31" departLane="best" from="-52328295#2" to="4611713#1"/>
    <trip id="veh97" type="veh_passenger" depart="309.50" departLane="best" from="195401013#3" to="202156994#0"/>
    <trip id="veh98" type="veh_passenger" depart="312.70" departLane="best" from="819027709#0" to="890801131#1"/>
    <trip id="veh99" type="veh_passenger" depart="315.89" departLane="best" departSpeed="max" from="24914141#0" to="43087099#0"/>
    <trip id="veh100" type="veh_passenger" depart="319.08" departLane="best" from="-315214529#3" to="153698380#0"/>
    <trip id="veh101" type="veh_passenger" depart="322.27" departLane="best" from="82652397#1" to="296122995#0"/>
    <trip id="veh102" type="veh_passenger" depart="325.46" departLane="best" from="246052428" to="4588211#0"/>
    <trip id="veh103" type="veh_passenger" depart="328.65" departLane="best" from="-176043807#5" to="301241681#1"/>
    <trip id="veh104" type="veh_passenger" depart="331.84" departLane="best" departSpeed="max" from="-31912630#1" to="82654055#0"/>
    <trip id="veh106" type="veh_passenger" depart="338.22" departLane="best" from="288585010" to="340498982#4"/>
    <trip id="veh107" type="veh_passenger" depart="341.41" departLane="best" from="541763975" to="-751595930"/>
    <trip id="veh108" type="veh_passenger" depart="344.60" departLane="best" from="288584452#1" to="312176585#2"/>
    <trip id="veh109" type="veh_passenger" depart="347.79" departLane="best" departSpeed="max" from="187091988" to="301241483#3"/>
    <trip id="veh110" type="veh_passenger" depart="350.98" departLane="best" from="24240246#3" to="753730627#1"/>
    <trip id="veh111" type="veh_passenger" depart="354.17" departLane="best" from="-4570580#2" to="42103020#2"/>
    <trip id="veh113" type="veh_passenger" depart="360.56" departLane="best" from="312533962#3" to="153698402#2"/>
    <trip id="veh114" type="veh_passenger" depart="363.75" departLane="best" from="112128419#1" to="4592725#4"/>
    <trip id="veh115" type="veh_passenger" depart="366.94" departLane="best" from="-19801644#2" to="234463931#6"/>
    <trip id="veh116" type="veh_passenger" depart="370.13" departLane="best" from="882389494" to="890801131#1"/>
    <trip id="veh117" type="veh_passenger" depart="373.32" departLane="best" from="-19801644#3" to="-4612976"/>
    <trip id="veh118" type="veh_passenger" depart="376.51" departLane="best" from="523630409" to="54781811#1"/>
    <trip id="veh119" type="veh_passenger" depart="379.70" departLane="best" from="168942727#0" to="-35578576#0"/>
    <trip id="veh120" type="veh_passenger" depart="382.89" departLane="best" from="4612966#1" to="370359204#1"/>
    <trip id="veh121" type="veh_passenger" depart="386.08" departLane="best" departSpeed="max" from="29311581#0" to="874528353#0"/>
    <trip id="veh122" type="veh_passenger" depart="389.27" departLane="best" from="310176513#1" to="-112128825#0"/>
    <trip id="veh123" type="veh_passenger" depart="392.46" departLane="best" from="4611693#2" to="153698394#2"/>
    <trip id="veh124" type="veh_passenger" depart="395.65" departLane="best" from="312357351#1" to="753730627#1"/>
    <trip id="veh125" type="veh_passenger" depart="398.85" departLane="best" departSpeed="max" from="-276701303#2" to="-28251222#0"/>
    <trip id="veh126" type="veh_passenger" depart="402.04" departLane="best" departSpeed="max" from="-23813206#2" to="288584715"/>
    <trip id="veh127" type="veh_passenger" depart="405.23" departLane="best" from="-6227658#2" to="30721662#3"/>
    <trip id="veh128" type="veh_passenger" depart="408.42" departLane="best" from="339201177#3" to="-4612966#0"/>
    <trip id="veh129" type="veh_passenger" depart="411.61" departLane="best" from="23386522#1" to="66071373#1"/>
    <trip id="veh130" type="veh_passenger" depart="414.80" departLane="best" from="4613308#3" to="-23755739#4"/>
    <trip id="veh131" type="veh_passenger" depart="417.99" departLane="best" from="188044903#0" to="112128418#5"/>
    <trip id="veh132" type="veh_passenger" depart="421.18" departLane="best" departSpeed="max" from="-109819340#3" to="4610607"/>
    <trip id="veh134" type="veh_passenger" depart="427.56" departLane="best" from="188046016#0" to="-120675240#3"/>
    <trip id="veh135" type="veh_passenger" depart="430.75" departLane="best" departSpeed="max" from="-202156991#2" to="60333309#1"/>
    <trip id="veh136" type="veh_passenger" depart="433.94" departLane="best" from="606078071#0" to="28251222#0"/>
    <trip id="veh137" type="veh_passenger" depart="437.13" departLane="best" from="4612968#1" to="301241483#3"/>
    <trip id="veh138" type="veh_passenger" depart="440.33" departLane="best" departSpeed="max" from="111833185#0" to="6227658#3"/>
    <trip id="veh139" type="veh_passenger" depart="443.52" departLane="best" from="4588217" to="495066404"/>
    <trip id="veh140" type="veh_passenger" depart="446.71" departLane="best" departSpeed="max" from="-4790825#2" to="-24243107#0"/>
    <trip id="veh141" type="veh_passenger" depart="449.90" departLane="best" from="437325054#0" to="60333311#1"/>
    <trip id="veh142" type="veh_passenger" depart="453.09" departLane="best" departSpeed="max" from="176273730#0" to="312176585#2"/>
    <trip id="veh143" type="veh_passenger" depart="456.28" departLane="best" from="-315214529#3" to="750204886"/>
    <trip id="veh144" type="veh_passenger" depart="459.47" departLane="best" from="47016365#1" to="83517332#2"/>
    <trip id="veh145" type="veh_passenger" depart="462.66" departLane="best" from="4610476#2" to="60333308#0"/>
    <trip id="veh146" type="veh_passenger" depart="465.85" departLane="best" from="-155186522" to="4412886#0"/>
    <trip id="veh147" type="veh_passenger" depart="469.04" departLane="best" from="136571494#4" to="751602168"/>
    <trip id="veh148" type="veh_passenger" depart="472.23" departLane="best" from="4610351#1" to="51167934#4"/>
    <trip id="veh149" type="veh_passenger" depart="475.42" departLane="best" from="4610476#2" to="108031933#0"/>
    <trip id="veh150" type="veh_passenger" depart="478.61" departLane="best" from="4403559#1" to="-24992424#5"/>
    <trip id="veh151" type="veh_passenger" depart="481.81" departLane="best" from="4790833#0" to="493008124#1"/>
    <trip id="veh152" type="veh_passenger" depart="485.00" departLane="best" departSpeed="max" from="-4611713#1" to="4615546#2"/>
    <trip id="veh153" type="veh_passenger" depart="488.19" departLane="best" from="196850609#0" to="154043350#1"/>
    <trip id="veh154" type="veh_passenger" depart="491.38" departLane="best" from="4588211#0" to="-52328295#2"/>
    <trip id="veh155" type="veh_passenger" depart="494.57" departLane="best" from="-153698415#2" to="-4610375"/>
    <trip id="veh156" type="veh_passenger" depart="497.76" departLane="best" departSpeed="max" from="131505631#0" to="51167934#4"/>
    <trip id="veh157" type="veh_passenger" depart="500.95" departLane="best" from="82652397#0" to="112128419#1"/>
    <trip id="veh158" type="veh_passenger" depart="504.14" departLane="best" from="30720544#0" to="195104960#1"/>
    <trip id="veh159" type="veh_passenger" depart="507.33" departLane="best" from="831658811#1" to="25294729#1"/>
    <trip id="veh160" type="veh_passenger" depart="510.52" departLane="best" departSpeed="max" from="740538839#0" to="-28251222#0"/>
    <trip id="veh161" type="veh_passenger" depart="513.71" departLane="best" from="82654055#0" to="-437325055#2"/>
    <trip id="veh162" type="veh_passenger" depart="516.90" departLane="best" from="82639450" to="100405009#4"/>
    <trip id="veh164" type="veh_passenger" depart="523.29" departLane="best" from="340498982#5" to="158023913#2"/>
    <trip id="veh165" type="veh_passenger" depart="526.48" departLane="best" from="292429056#3" to="24913304#1"/>
    <trip id="veh166" type="veh_passenger" depart="529.67" departLane="best" from="169195795#7" to="295445243"/>
    <trip id="veh167" type="veh_passenger" depart="532.86" departLane="best" from="-492340367#0" to="389101365#3"/>
    <trip id="veh168" type="veh_passenger" depart="536.05" departLane="best" from="-109819340#2" to="740538839#2"/>
    <trip id="veh169" type="veh_passenger" depart="539.24" departLane="best" departSpeed="max" from="168935756#0" to="-195397561#0"/>
    <trip id="veh170" type="veh_passenger" depart="542.43" departLane="best" from="312357351#1" to="168940071#1"/>
    <trip id="veh171" type="veh_passenger" depart="545.62" departLane="best" from="112128418#2" to="4790839#1"/>
    <trip id="veh172" type="veh_passenger" depart="548.81" departLane="best" from="340498976#10" to="153698402#2"/>
    <trip id="veh173" type="veh_passenger" depart="552.00" departLane="best" departSpeed="max" from="111833185#0" to="195401017#5"/>
    <trip id="veh174" type="veh_passenger" depart="555.19" departLane="best" from="176043807#3" to="147066248#4"/>
    <trip id="veh175" type="veh_passenger" depart="558.38" departLane="best" departSpeed="max" from="-25294729#1" to="202156991#1"/>
    <trip id="veh176" type="veh_passenger" depart="561.57" departLane="best" departSpeed="max" from="740538839#0" to="340498982#5"/>
    <trip id="veh177" type="veh_passenger" depart="564.77" departLane="best" from="606078065" to="310177222#0"/>
    <trip id="veh179" type="veh_passenger" depart="571.15" departLane="best" from="-108031933#1" to="128396190#1"/>
    <trip id="veh180" type="veh_passenger" depart="574.34" departLane="best" from="188047750" to="296122995#0"/>
    <trip id="veh181" type="veh_passenger" depart="577.53" departLane="best" from="310176513#2" to="23809678#1"/>
    <trip id="veh182" type="veh_passenger" depart="580.72" departLane="best" from="202156995#1" to="625843712"/>
    <trip id="veh183" type="veh_passenger" depart="583.91" departLane="best" from="4588217" to="-43159545#0"/>
    <trip id="veh184" type="veh_passenger" depart="587.10" departLane="best" departSpeed="max" from="-22972473#2" to="24913519#1"/>
    <trip id="veh185" type="veh_passenger" depart="590.29" departLane="best" from="305093247#0" to="168943640#0"/>
    <trip id="veh186" type="veh_passenger" depart="593.48" departLane="best" from="4611696#1" to="4592725#3"/>
    <trip id="veh187" type="veh_passenger" depart="596.67" departLane="best" from="312534044#3" to="-492340367#0"/>
    <trip id="veh188" type="veh_passenger" depart="599.86" departLane="best" from="-4402037#1" to="-153698387#1"/>
    <trip id="veh190" type="veh_passenger" depart="606.25" departLane="best" from="461526153" to="-19801644#3"/>
    <trip id="veh191" type="veh_passenger" depart="609.44" departLane="best" departSpeed="max" from="187091988" to="312533962#1"/>
    <trip id="veh192" type="veh_passenger" depart="612.63" departLane="best" from="-437325056#2" to="35557161#1"/>
    <trip id="veh193" type="veh_passenger" depart="615.82" departLane="best" from="310176513#6" to="-111833185#0"/>
    <trip id="veh194" type="veh_passenger" depart="619.01" departLane="best" from="370359204#1" to="4610480"/>
    <trip id="veh195" type="veh_passenger" depart="622.20" departLane="best" from="-23813206#1" to="202156994#0"/>
    <trip id="veh196" type="veh_passenger" depart="625.39" departLane="best" departSpeed="max" from="-35557161#2" to="82652397#0"/>
    <trip id="veh197" type="veh_passenger" depart="628.58" departLane="best" from="24240245#1" to="-173197451#7"/>
    <trip id="veh198" type="veh_passenger" depart="631.77" departLane="best" departSpeed="max" from="-4790825#2" to="4790839#1"/>
    <trip id="veh199" type="veh_passenger" depart="634.96" departLane="best" from="195401017#5" to="4613293"/>
    <trip id="veh200" type="veh_passenger" depart="638.15" departLane="best" from="312533961#0" to="874528353#2"/>
    <trip id="veh201" type="veh_passenger" depart="641.34" departLane="best" from="288585010" to="824274187#0"/>
    <trip id="veh202" type="veh_passenger" depart="644.53" departLane="best" from="339201217#1" to="246044844#1"/>
    <trip id="veh204" type="veh_passenger" depart="650.92" departLane="best" from="60333309#1" to="457031289"/>
    <trip id="veh205" type="veh_passenger" depart="654.11" departLane="best" from="202157002#2" to="-874528353#0"/>
    <trip id="veh206" type="veh_passenger" depart="657.30" departLane="best" from="-474362271" to="315214529#1"/>
    <trip id="veh207" type="veh_passenger" depart="660.49" departLane="best" from="42103020#2" to="24914141#7"/>
    <trip id="veh208" type="veh_passenger" depart="663.68" departLane="best" from="-6227658#1" to="15973619#5"/>
    <trip id="veh209" type="veh_passenger" depart="666.87" departLane="best" from="246044848" to="-316746323#0"/>
    <trip id="veh210" type="veh_passenger" depart="670.06" departLane="best" from="-4612981#1" to="35556702#1"/>
    <trip id="veh211" type="veh_passenger" depart="673.25" departLane="best" departSpeed="max" from="330460453#0" to="-194962375#1"/>
    <trip id="veh212" type="veh_passenger" depart="676.44" departLane="best" departSpeed="max" from="176273730#0" to="268002748#0"/>
    <trip id="veh213" type="veh_passenger" depart="679.63" departLane="best" departSpeed="max" from="187091988" to="-4612968#0"/>
    <trip id="veh214" type="veh_passenger" depart="682.82" departLane="best" from="187103791" to="66071370"/>
    <trip id="veh215" type="veh_passenger" depart="686.01" departLane="best" from="28016312#0" to="35557143#1"/>
    <trip id="veh217" type="veh_passenger" depart="692.40" departLane="best" from="169195795#4" to="-111833185#1"/>
    <trip id="veh218" type="veh_passenger" depart="695.59" departLane="best" from="156364566#1" to="4597320#2"/>
    <trip id="veh219" type="veh_passenger" depart="698.78" departLane="best" departSpeed="max" from="187091988" to="4570580#3"/>
    <trip id="veh220" type="veh_passenger" depart="701.97" departLane="best" from="24913304#2" to="30721662#0"/>
    <trip id="veh222" type="veh_passenger" depart="708.35" departLane="best" from="189133036#1" to="-156364570#0"/>
    <trip id="veh223" type="veh_passenger" depart="711.54" departLane="best" departSpeed="max" from="147066248#0" to="340498982#9"/>
    <trip id="veh224" type="veh_passenger" depart="714.73" departLane="best" from="176043807#7" to="-387892378"/>
    <trip id="veh225" type="veh_passenger" depart="717.92" departLane="best" from="19801644#3" to="-310177222#2"/>
    <trip id="veh226" type="veh_passenger" depart="721.11" departLane="best" from="301167584#0" to="-155186522"/>
    <trip id="veh227" type="veh_passenger" depart="724.30" departLane="best" from="171826985#1" to="289967595#0"/>
    <trip id="veh228" type="veh_passenger" depart="727.49" departLane="best" from="-156364570#1" to="31609650#2"/>
    <trip id="veh229" type="veh_passenger" depart="730.69" departLane="best" from="-28251222#0" to="23755739#4"/>
    <trip id="veh230" type="veh_passenger" depart="733.88" departLane="best" from="-173197451#0" to="188046016#0"/>
    <trip id="veh231" type="veh_passenger" depart="737.07" departLane="best" from="-4610472#0" to="165415464#0"/>
    <trip id="veh232" type="veh_passenger" depart="740.26" departLane="best" from="4067932#1" to="188046016#0"/>
    <trip id="veh233" type="veh_passenger" depart="743.45" departLane="best" departSpeed="max" from="37289106" to="4773465#2"/>
    <trip id="veh235" type="veh_passenger" depart="749.83" departLane="best" from="-147066248#1" to="26506567#1"/>
    <trip id="veh236" type="veh_passenger" depart="753.02" departLane="best" from="309155392" to="4611708#3"/>
    <trip id="veh237" type="veh_passenger" depart="756.21" departLane="best" from="309479676" to="4597320#3"/>
    <trip id="veh238" type="veh_passenger" depart="759.40" departLane="best" from="756306892" to="-4611706#1"/>
    <trip id="veh239" type="veh_passenger" depart="762.59" departLane="best" from="-147066248#3" to="-339201177#2"/>
    <trip id="veh240" type="veh_passenger" depart="765.78" departLane="best" departSpeed="max" from="-25294729#1" to="340498976#6"/>
    <trip id="veh242" type="veh_passenger" depart="772.17" departLane="best" from="320462164#4" to="4610472#0"/>
    <trip id="veh243" type="veh_passenger" depart="775.36" departLane="best" from="-339201177#2" to="309147331#0"/>
    <trip id="veh244" type="veh_passenger" depart="778.55" departLane="best" departSpeed="max" from="369223458" to="-28016312#0"/>
    <trip id="veh245" type="veh_passenger" depart="781.74" departLane="best" from="4611696#4" to="82659290#0"/>
    <trip id="veh246" type="veh_passenger" depart="784.93" departLane="best" departSpeed="max" from="-23813206#2" to="-153698415#2"/>
    <trip id="veh247" type="veh_passenger" depart="788.12" departLane="best" from="111833186#2" to="340498982#8"/>
    <trip id="veh248" type="veh_passenger" depart="791.31" departLane="best" from="819027709#0" to="194069450#0"/>
    <trip id="veh249" type="veh_passenger" depart="794.50" departLane="best" departSpeed="max" from="330460453#0" to="-222328410"/>
    <trip id="veh250" type="veh_passenger" depart="797.69" departLane="best" departSpeed="max" from="318915602#0" to="312533961#0"/>
    <trip id="veh251" type="veh_passenger" depart="800.88" departLane="best" from="-23755739#3" to="4610610#1"/>
    <trip id="veh253" type="veh_passenger" depart="807.26" departLane="best" from="-24913267#2" to="844076875#1"/>
    <trip id="veh254" type="veh_passenger" depart="810.45" departLane="best" from="4396823#1" to="169195795#7"/>
    <trip id="veh255" type="veh_passenger" depart="813.65" departLane="best" from="188046016#0" to="177372522"/>
    <trip id="veh256" type="veh_passenger" depart="816.84" departLane="best" from="23813206#1" to="169195795#1"/>
    <trip id="veh258" type="veh_passenger" depart="823.22" departLane="best" from="-23809670#3" to="82654055#0"/>
    <trip id="veh260" type="veh_passenger" depart="829.60" departLane="best" from="340498988#0" to="82659290#0"/>
    <trip id="veh261" type="veh_passenger" depart="832.79" departLane="best" departSpeed="max" from="-60333317#1" to="46140376#0"/>
    <trip id="veh262" type="veh_passenger" depart="835.98" departLane="best" from="246044841#0" to="24240246#1"/>
    <trip id="veh263" type="veh_passenger" depart="839.17" departLane="best" from="189133036#0" to="4401967#0"/>
    <trip id="veh264" type="veh_passenger" depart="842.36" departLane="best" from="4612965" to="-23386522#9"/>
    <trip id="veh265" type="veh_passenger" depart="845.55" departLane="best" from="534588621#0" to="-743631784"/>
    <trip id="veh266" type="veh_passenger" depart="848.74" departLane="best" from="19801618#2" to="309479676"/>
    <trip id="veh267" type="veh_passenger" depart="851.93" departLane="best" from="169195795#1" to="-156364570#0"/>
    <trip id="veh269" type="veh_passenger" depart="858.32" departLane="best" from="-4610472#1" to="4612973#0"/>
    <trip id="veh270" type="veh_passenger" depart="861.51" departLane="best" from="153698387#3" to="560370523"/>
    <trip id="veh271" type="veh_passenger" depart="864.70" departLane="best" from="326116285#2" to="112128418#5"/>