<routes>
   <vType id="pedestrian" length=".215" width=".478" height="1.719" minGap=".5" accel="1.5" decel="2" maxSpeed="1.5" emissionClass="PHEMlight/zero" guiShape="pedestrian"/>
   <vType id="bicycle" length="1.6" width=".65" height="1.7" minGap=".5" accel="1.2" decel="4.5" maxSpeed="5.55" emissionClass="PHEMlight/zero" guiShape="bicycle"/>

   <vTypeDistribution id="passenger">
      <vType id="passenger#0" emissionClass="PHEMlight/LNF_G_EU0_II" probability="7.47479329468e-22" width="1.9" length="4.7" maxSpeed="50" guiShape="delivery" minGap="2.5" accel="2.9" decel="4.5" height="1.73"/>
      <vType id="passenger#1" emissionClass="PHEMlight/LNF_D_EU2_II" probability="0.00253502885181" width="1.9" length="4.7" maxSpeed="50" guiShape="delivery" minGap="2.5" accel="2.9" decel="4.5" height="1.73"/>
      <vType id="passenger#2" emissionClass="PHEMlight/LNF_D_EU5_II" probability="0.0330098763273" width="1.9" length="4.7" maxSpeed="50" guiShape="delivery" minGap="2.5" accel="2.9" decel="4.5" height="1.73"/>
      <vType id="passenger#3" emissionClass="PHEMlight/LNF_G_EU3_II" probability="0.000155110457569" width="1.9" length="4.7" maxSpeed="50" guiShape="delivery" minGap="2.5" accel="2.9" decel="4.5" height="1.73"/>
      <vType id="passenger#4" emissionClass="PHEMlight/PKW_G_EU6" probability="0.16863220919" width="1.8" length="4.3" maxSpeed="50" guiShape="passenger" minGap="2.5" accel="2.9" decel="4.5" height="1.5"/>
      <vType id="passenger#5" emissionClass="PHEMlight/PKW_G_EU4" probability="0.0495396224845" width="1.8" length="4.3" maxSpeed="50" guiShape="passenger" minGap="2.5" accel="2.9" decel="4.5" height="1.5"/>
      <vType id="passenger#6" emissionClass="PHEMlight/PKW_G_EU5" probability="0.127997266737" width="1.8" length="4.3" maxSpeed="50" guiShape="passenger" minGap="2.5" accel="2.9" decel="4.5" height="1.5"/>
      <vType id="passenger#7" emissionClass="PHEMlight/PKW_G_EU2" probability="0.00851238728979" width="1.8" length="4.3" maxSpeed="50" guiShape="passenger" minGap="2.5" accel="2.9" decel="4.5" height="1.5"/>
      <vType id="passenger#8" emissionClass="PHEMlight/PKW_G_EU3" probability="0.00573616573127" width="1.8" length="4.3" maxSpeed="50" guiShape="passenger" minGap="2.5" accel="2.9" decel="4.5" height="1.5"/>
      <vType id="passenger#9" emissionClass="PHEMlight/PKW_G_EU0" probability="0.00397192408361" width="1.8" length="4.3" maxSpeed="50" guiShape="passenger" minGap="2.5" accel="2.9" decel="4.5" height="1.5"/>
      <vType id="passenger#10" emissionClass="PHEMlight/LNF_D_EU4_II" probability="0.0198849908886" width="1.9" length="4.7" maxSpeed="50" guiShape="delivery" minGap="2.5" accel="2.9" decel="4.5" height="1.73"/>
      <vType id="passenger#11" emissionClass="PHEMlight/LNF_G_EU5_II" probability="0.000741214668208" width="1.9" length="4.7" maxSpeed="50" guiShape="delivery" minGap="2.5" accel="2.9" decel="4.5" height="1.73"/>
      <vType id="passenger#12" emissionClass="PHEMlight/LNF_D_EU6_II" probability="0.0480141796331" width="1.9" length="4.7" maxSpeed="50" guiShape="delivery" minGap="2.5" accel="2.9" decel="4.5" height="1.73"/>
      <vType id="passenger#13" emissionClass="PHEMlight/PKW_D_EU1" probability="0.00645763145005" width="1.8" length="4.3" maxSpeed="50" guiShape="passenger" minGap="2.5" accel="2.9" decel="4.5" height="1.5"/>
      <vType id="passenger#14" emissionClass="PHEMlight/PKW_D_EU0" probability="0.000502617259298" width="1.8" length="4.3" maxSpeed="50" guiShape="passenger" minGap="2.5" accel="2.9" decel="4.5" height="1.5"/>
      <vType id="passenger#15" emissionClass="PHEMlight/PKW_D_EU3" probability="0.0221249429347" width="1.8" length="4.3" maxSpeed="50" guiShape="passenger" minGap="2.5" accel="2.9" decel="4.5" height="1.5"/>
      <vType id="passenger#16" emissionClass="PHEMlight/PKW_D_EU2" probability="0.0104970960745" width="1.8" length="4.3" maxSpeed="50" guiShape="passenger" minGap="2.5" accel="2.9" decel="4.5" height="1.5"/>
      <vType id="passenger#17" emissionClass="PHEMlight/LNF_G_EU6_II" probability="0.000956561586986" width="1.9" length="4.7" maxSpeed="50" guiShape="delivery" minGap="2.5" accel="2.9" decel="4.5" height="1.73"/>
      <vType id="passenger#18" emissionClass="PHEMlight/PKW_D_EU4" probability="0.0661285018037" width="1.8" length="4.3" maxSpeed="50" guiShape="passenger" minGap="2.5" accel="2.9" decel="4.5" height="1.5"/>
      <vType id="passenger#19" emissionClass="PHEMlight/PKW_D_EU6" probability="0.234896215422" width="1.8" length="4.3" maxSpeed="50" guiShape="passenger" minGap="2.5" accel="2.9" decel="4.5" height="1.5"/>
      <vType id="passenger#20" emissionClass="PHEMlight/LNF_D_EU1_II" probability="0.000647100746547" width="1.9" length="4.7" maxSpeed="50" guiShape="delivery" minGap="2.5" accel="2.9" decel="4.5" height="1.73"/>
      <vType id="passenger#21" emissionClass="PHEMlight/LNF_D_EU0_II" probability="1.37583264952e-21" width="1.9" length="4.7" maxSpeed="50" guiShape="delivery" minGap="2.5" accel="2.9" decel="4.5" height="1.73"/>
      <vType id="passenger#22" emissionClass="PHEMlight/PKW_D_EU5" probability="0.181186388968" width="1.8" length="4.3" maxSpeed="50" guiShape="passenger" minGap="2.5" accel="2.9" decel="4.5" height="1.5"/>
      <vType id="passenger#23" emissionClass="PHEMlight/LNF_D_EU3_II" probability="0.0071512191014" width="1.9" length="4.7" maxSpeed="50" guiShape="delivery" minGap="2.5" accel="2.9" decel="4.5" height="1.73"/>
      <vType id="passenger#24" emissionClass="PHEMlight/LNF_G_EU2_II" probability="0.000176473753685" width="1.9" length="4.7" maxSpeed="50" guiShape="delivery" minGap="2.5" accel="2.9" decel="4.5" height="1.73"/>
      <vType id="passenger#25" emissionClass="PHEMlight/LNF_G_EU4_II" probability="0.000545274556971" width="1.9" length="4.7" maxSpeed="50" guiShape="delivery" minGap="2.5" accel="2.9" decel="4.5" height="1.73"/>
   </vTypeDistribution>

   <vTypeDistribution id="motorcycle">
      <vType id="motorcycle#0" emissionClass="PHEMlight/MR_G_EU0_4T" probability="0.0439918746494" width="1.8" length="2.2" maxSpeed="50" guiShape="motorcycle" minGap="2.5" accel="6" decel="4.5" height="1.5"/>
      <vType id="motorcycle#1" emissionClass="PHEMlight/MR_G_EU1_2T" probability="0.00612328865162" width="1.8" length="2.2" maxSpeed="50" guiShape="motorcycle" minGap="2.5" accel="6" decel="4.5" height="1.5"/>
      <vType id="motorcycle#2" emissionClass="PHEMlight/MR_G_EU3_2T" probability="0.000835543153324" width="1.8" length="2.2" maxSpeed="50" guiShape="motorcycle" minGap="2.5" accel="6" decel="4.5" height="1.5"/>
      <vType id="motorcycle#3" emissionClass="PHEMlight/MR_G_EU0_2T" probability="0.00301156806292" width="1.8" length="2.2" maxSpeed="50" guiShape="motorcycle" minGap="2.5" accel="6" decel="4.5" height="1.5"/>
      <vType id="motorcycle#4" emissionClass="PHEMlight/MR_G_EU5_4T" probability="0.181891376266" width="1.8" length="2.2" maxSpeed="50" guiShape="motorcycle" minGap="2.5" accel="6" decel="4.5" height="1.5"/>
      <vType id="motorcycle#5" emissionClass="PHEMlight/MR_G_EU2_2T" probability="0.000117413105941" width="1.8" length="2.2" maxSpeed="50" guiShape="motorcycle" minGap="2.5" accel="6" decel="4.5" height="1.5"/>
      <vType id="motorcycle#6" emissionClass="PHEMlight/MR_G_EU3_4T" probability="0.241675787689" width="1.8" length="2.2" maxSpeed="50" guiShape="motorcycle" minGap="2.5" accel="6" decel="4.5" height="1.5"/>
      <vType id="motorcycle#7" emissionClass="PHEMlight/MR_G_EU6_4T" probability="0.0" width="1.8" length="2.2" maxSpeed="50" guiShape="motorcycle" minGap="2.5" accel="6" decel="4.5" height="1.5"/>
      <vType id="motorcycle#8" emissionClass="PHEMlight/MR_G_EU4_4T" probability="0.12136471941" width="1.8" length="2.2" maxSpeed="50" guiShape="motorcycle" minGap="2.5" accel="6" decel="4.5" height="1.5"/>
      <vType id="motorcycle#9" emissionClass="PHEMlight/MR_G_EU2_4T" probability="0.0732615641773" width="1.8" length="2.2" maxSpeed="50" guiShape="motorcycle" minGap="2.5" accel="6" decel="4.5" height="1.5"/>
      <vType id="motorcycle#10" emissionClass="PHEMlight/MR_G_EU5_2T" probability="0.00207990665643" width="1.8" length="2.2" maxSpeed="50" guiShape="motorcycle" minGap="2.5" accel="6" decel="4.5" height="1.5"/>
      <vType id="motorcycle#11" emissionClass="PHEMlight/MR_G_EU4_2T" probability="0.00185976340875" width="1.8" length="2.2" maxSpeed="50" guiShape="motorcycle" minGap="2.5" accel="6" decel="4.5" height="1.5"/>
      <vType id="motorcycle#12" emissionClass="PHEMlight/MR_G_EU1_4T" probability="0.323787194769" width="1.8" length="2.2" maxSpeed="50" guiShape="motorcycle" minGap="2.5" accel="6" decel="4.5" height="1.5"/>
      <vType id="motorcycle#13" emissionClass="PHEMlight/MR_G_EU6_2T" probability="0.0" width="1.8" length="2.2" maxSpeed="50" guiShape="motorcycle" minGap="2.5" accel="6" decel="4.5" height="1.5"/>
   </vTypeDistribution>

   <vTypeDistribution id="bus">
      <vType id="bus#0" emissionClass="PHEMlight/LB_D_EU0" probability="0.00909593668602" width="2.5" length="12" maxSpeed="23.6" guiShape="bus" minGap="2.5" accel="1.2" decel="4.5" height="3.4"/>
      <vType id="bus#1" emissionClass="PHEMlight/LB_D_EU1" probability="0.00913829408953" width="2.5" length="12" maxSpeed="23.6" guiShape="bus" minGap="2.5" accel="1.2" decel="4.5" height="3.4"/>
      <vType id="bus#2" emissionClass="PHEMlight/LB_D_EU2" probability="0.0353510247795" width="2.5" length="12" maxSpeed="23.6" guiShape="bus" minGap="2.5" accel="1.2" decel="4.5" height="3.4"/>
      <vType id="bus#3" emissionClass="PHEMlight/LB_D_EU3" probability="0.0764947060755" width="2.5" length="12" maxSpeed="23.6" guiShape="bus" minGap="2.5" accel="1.2" decel="4.5" height="3.4"/>
      <vType id="bus#4" emissionClass="PHEMlight/LB_D_EU4" probability="0.0433746979603" width="2.5" length="12" maxSpeed="23.6" guiShape="bus" minGap="2.5" accel="1.2" decel="4.5" height="3.4"/>
      <vType id="bus#5" emissionClass="PHEMlight/LB_D_EU5" probability="0.327683324447" width="2.5" length="12" maxSpeed="23.6" guiShape="bus" minGap="2.5" accel="1.2" decel="4.5" height="3.4"/>
      <vType id="bus#6" emissionClass="PHEMlight/LB_D_EU6" probability="0.498862015963" width="2.5" length="12" maxSpeed="23.6" guiShape="bus" minGap="2.5" accel="1.2" decel="4.5" height="3.4"/>
   </vTypeDistribution>

   <vTypeDistribution id="hdv">
      <vType id="hdv#0" emissionClass="PHEMlight/Solo_LKW_D_EU0_II" probability="6.29874170611e-13" width="2.4" length="7.1" maxSpeed="36.1" guiShape="truck" minGap="2.5" accel="1.3" decel="4.5" height="3"/>
      <vType id="hdv#1" emissionClass="PHEMlight/Solo_LKW_D_EU1_I" probability="2.39832923482e-06" width="2.4" length="7.1" maxSpeed="36.1" guiShape="truck" minGap="2.5" accel="1.3" decel="4.5" height="3"/>
      <vType id="hdv#2" emissionClass="PHEMlight/Solo_LKW_D_EU6_II" probability="0.286964140739" width="2.4" length="7.1" maxSpeed="36.1" guiShape="truck" minGap="2.5" accel="1.3" decel="4.5" height="3"/>
      <vType id="hdv#3" emissionClass="PHEMlight/LSZ_D_EU5" probability="0.0285305683555" width="2.55" length="16.5" maxSpeed="36.1" guiShape="truck/semitrailer" minGap="2.5" accel="1.1" decel="4.5" height="4"/>
      <vType id="hdv#4" emissionClass="PHEMlight/LSZ_D_EU0" probability="0.000154934523538" width="2.55" length="16.5" maxSpeed="36.1" guiShape="truck/semitrailer" minGap="2.5" accel="1.1" decel="4.5" height="4"/>
      <vType id="hdv#5" emissionClass="PHEMlight/Solo_LKW_D_EU5_I" probability="0.0976070093022" width="2.4" length="7.1" maxSpeed="36.1" guiShape="truck" minGap="2.5" accel="1.3" decel="4.5" height="3"/>
      <vType id="hdv#6" emissionClass="PHEMlight/LSZ_D_EU2" probability="0.00104225084989" width="2.55" length="16.5" maxSpeed="36.1" guiShape="truck/semitrailer" minGap="2.5" accel="1.1" decel="4.5" height="4"/>
      <vType id="hdv#7" emissionClass="PHEMlight/Solo_LKW_D_EU5_II" probability="0.130622097843" width="2.4" length="7.1" maxSpeed="36.1" guiShape="truck" minGap="2.5" accel="1.3" decel="4.5" height="3"/>
      <vType id="hdv#8" emissionClass="PHEMlight/Solo_LKW_D_EU4_II" probability="0.0162363240358" width="2.4" length="7.1" maxSpeed="36.1" guiShape="truck" minGap="2.5" accel="1.3" decel="4.5" height="3"/>
      <vType id="hdv#9" emissionClass="PHEMlight/Solo_LKW_D_EU6_I" probability="0.213315469586" width="2.4" length="7.1" maxSpeed="36.1" guiShape="truck" minGap="2.5" accel="1.3" decel="4.5" height="3"/>
      <vType id="hdv#10" emissionClass="PHEMlight/Solo_LKW_D_EU1_II" probability="2.81508144483e-06" width="2.4" length="7.1" maxSpeed="36.1" guiShape="truck" minGap="2.5" accel="1.3" decel="4.5" height="3"/>
      <vType id="hdv#11" emissionClass="PHEMlight/LSZ_D_EU4" probability="0.00240222334322" width="2.55" length="16.5" maxSpeed="36.1" guiShape="truck/semitrailer" minGap="2.5" accel="1.1" decel="4.5" height="4"/>
      <vType id="hdv#12" emissionClass="PHEMlight/Solo_LKW_D_EU3_II" probability="0.0373361815148" width="2.4" length="7.1" maxSpeed="36.1" guiShape="truck" minGap="2.5" accel="1.3" decel="4.5" height="3"/>
      <vType id="hdv#13" emissionClass="PHEMlight/Solo_LKW_D_EU2_I" probability="0.00995740895328" width="2.4" length="7.1" maxSpeed="36.1" guiShape="truck" minGap="2.5" accel="1.3" decel="4.5" height="3"/>
      <vType id="hdv#14" emissionClass="PHEMlight/LSZ_D_EU3" probability="0.00425810925973" width="2.55" length="16.5" maxSpeed="36.1" guiShape="truck/semitrailer" minGap="2.5" accel="1.1" decel="4.5" height="4"/>
      <vType id="hdv#15" emissionClass="PHEMlight/Solo_LKW_D_EU0_I" probability="6.92393554014e-13" width="2.4" length="7.1" maxSpeed="36.1" guiShape="truck" minGap="2.5" accel="1.3" decel="4.5" height="3"/>
      <vType id="hdv#16" emissionClass="PHEMlight/LSZ_D_EU6" probability="0.121995579487" width="2.55" length="16.5" maxSpeed="36.1" guiShape="truck/semitrailer" minGap="2.5" accel="1.1" decel="4.5" height="4"/>
      <vType id="hdv#17" emissionClass="PHEMlight/LSZ_D_EU1" probability="0.000265555973566" width="2.55" length="16.5" maxSpeed="36.1" guiShape="truck/semitrailer" minGap="2.5" accel="1.1" decel="4.5" height="4"/>
      <vType id="hdv#18" emissionClass="PHEMlight/Solo_LKW_D_EU4_I" probability="0.0108899724264" width="2.4" length="7.1" maxSpeed="36.1" guiShape="truck" minGap="2.5" accel="1.3" decel="4.5" height="3"/>
      <vType id="hdv#19" emissionClass="PHEMlight/Solo_LKW_D_EU2_II" probability="0.0118814745263" width="2.4" length="7.1" maxSpeed="36.1" guiShape="truck" minGap="2.5" accel="1.3" decel="4.5" height="3"/>
      <vType id="hdv#20" emissionClass="PHEMlight/Solo_LKW_D_EU3_I" probability="0.0265354858677" width="2.4" length="7.1" maxSpeed="36.1" guiShape="truck" minGap="2.5" accel="1.3" decel="4.5" height="3"/>
   </vTypeDistribution>

</routes>
