<routes>
   <vType id="pedestrian" length=".215" width=".478" height="1.719" minGap=".5" accel="1.5" decel="2" maxSpeed="1.5" emissionClass="PHEMlight/zero" guiShape="pedestrian"/>
   <vType id="bicycle" length="1.6" width=".65" height="1.7" minGap=".5" accel="1.2" decel="4.5" maxSpeed="5.55" emissionClass="PHEMlight/zero" guiShape="bicycle"/>

   <vTypeDistribution id="passenger">
      <vType id="passenger#0" emissionClass="PHEMlight/LNF_G_EU0_II" probability="0.000145235474992" width="1.9" length="4.7" maxSpeed="50" guiShape="delivery" minGap="2.5" accel="2.9" decel="4.5" height="1.73"/>
      <vType id="passenger#1" emissionClass="PHEMlight/LNF_D_EU2_II" probability="0.0112533278121" width="1.9" length="4.7" maxSpeed="50" guiShape="delivery" minGap="2.5" accel="2.9" decel="4.5" height="1.73"/>
      <vType id="passenger#2" emissionClass="PHEMlight/LNF_D_EU5_II" probability="0.0018361913624" width="1.9" length="4.7" maxSpeed="50" guiShape="delivery" minGap="2.5" accel="2.9" decel="4.5" height="1.73"/>
      <vType id="passenger#3" emissionClass="PHEMlight/LNF_G_EU3_II" probability="0.000724536511738" width="1.9" length="4.7" maxSpeed="50" guiShape="delivery" minGap="2.5" accel="2.9" decel="4.5" height="1.73"/>
      <vType id="passenger#4" emissionClass="PHEMlight/PKW_G_EU6" probability="0.0" width="1.8" length="4.3" maxSpeed="50" guiShape="passenger" minGap="2.5" accel="2.9" decel="4.5" height="1.5"/>
      <vType id="passenger#5" emissionClass="PHEMlight/PKW_G_EU4" probability="0.206827356291" width="1.8" length="4.3" maxSpeed="50" guiShape="passenger" minGap="2.5" accel="2.9" decel="4.5" height="1.5"/>
      <vType id="passenger#6" emissionClass="PHEMlight/PKW_G_EU5" probability="0.0306094344661" width="1.8" length="4.3" maxSpeed="50" guiShape="passenger" minGap="2.5" accel="2.9" decel="4.5" height="1.5"/>
      <vType id="passenger#7" emissionClass="PHEMlight/PKW_G_EU2" probability="0.0456305691038" width="1.8" length="4.3" maxSpeed="50" guiShape="passenger" minGap="2.5" accel="2.9" decel="4.5" height="1.5"/>
      <vType id="passenger#8" emissionClass="PHEMlight/PKW_G_EU3" probability="0.0410032203377" width="1.8" length="4.3" maxSpeed="50" guiShape="passenger" minGap="2.5" accel="2.9" decel="4.5" height="1.5"/>
      <vType id="passenger#9" emissionClass="PHEMlight/PKW_G_EU0" probability="0.0121908232938" width="1.8" length="4.3" maxSpeed="50" guiShape="passenger" minGap="2.5" accel="2.9" decel="4.5" height="1.5"/>
      <vType id="passenger#10" emissionClass="PHEMlight/LNF_D_EU4_II" probability="0.0488298511666" width="1.9" length="4.7" maxSpeed="50" guiShape="delivery" minGap="2.5" accel="2.9" decel="4.5" height="1.73"/>
      <vType id="passenger#11" emissionClass="PHEMlight/LNF_G_EU5_II" probability="4.58251122461e-05" width="1.9" length="4.7" maxSpeed="50" guiShape="delivery" minGap="2.5" accel="2.9" decel="4.5" height="1.73"/>
      <vType id="passenger#12" emissionClass="PHEMlight/LNF_D_EU6_II" probability="0.0" width="1.9" length="4.7" maxSpeed="50" guiShape="delivery" minGap="2.5" accel="2.9" decel="4.5" height="1.73"/>
      <vType id="passenger#13" emissionClass="PHEMlight/PKW_D_EU1" probability="0.0197649312692" width="1.8" length="4.3" maxSpeed="50" guiShape="passenger" minGap="2.5" accel="2.9" decel="4.5" height="1.5"/>
      <vType id="passenger#14" emissionClass="PHEMlight/PKW_D_EU0" probability="0.00155456253915" width="1.8" length="4.3" maxSpeed="50" guiShape="passenger" minGap="2.5" accel="2.9" decel="4.5" height="1.5"/>
      <vType id="passenger#15" emissionClass="PHEMlight/PKW_D_EU3" probability="0.154069968714" width="1.8" length="4.3" maxSpeed="50" guiShape="passenger" minGap="2.5" accel="2.9" decel="4.5" height="1.5"/>
      <vType id="passenger#16" emissionClass="PHEMlight/PKW_D_EU2" probability="0.0562065311333" width="1.8" length="4.3" maxSpeed="50" guiShape="passenger" minGap="2.5" accel="2.9" decel="4.5" height="1.5"/>
      <vType id="passenger#17" emissionClass="PHEMlight/LNF_G_EU6_II" probability="0.0" width="1.9" length="4.7" maxSpeed="50" guiShape="delivery" minGap="2.5" accel="2.9" decel="4.5" height="1.73"/>
      <vType id="passenger#18" emissionClass="PHEMlight/PKW_D_EU4" probability="0.278697959154" width="1.8" length="4.3" maxSpeed="50" guiShape="passenger" minGap="2.5" accel="2.9" decel="4.5" height="1.5"/>
      <vType id="passenger#19" emissionClass="PHEMlight/PKW_D_EU6" probability="0.0" width="1.8" length="4.3" maxSpeed="50" guiShape="passenger" minGap="2.5" accel="2.9" decel="4.5" height="1.5"/>
      <vType id="passenger#20" emissionClass="PHEMlight/LNF_D_EU1_II" probability="0.00956969747948" width="1.9" length="4.7" maxSpeed="50" guiShape="delivery" minGap="2.5" accel="2.9" decel="4.5" height="1.73"/>
      <vType id="passenger#21" emissionClass="PHEMlight/LNF_D_EU0_II" probability="0.000263581508353" width="1.9" length="4.7" maxSpeed="50" guiShape="delivery" minGap="2.5" accel="2.9" decel="4.5" height="1.73"/>
      <vType id="passenger#22" emissionClass="PHEMlight/PKW_D_EU5" probability="0.045181822995" width="1.8" length="4.3" maxSpeed="50" guiShape="passenger" minGap="2.5" accel="2.9" decel="4.5" height="1.5"/>
      <vType id="passenger#23" emissionClass="PHEMlight/LNF_D_EU3_II" probability="0.0333335770533" width="1.9" length="4.7" maxSpeed="50" guiShape="delivery" minGap="2.5" accel="2.9" decel="4.5" height="1.73"/>
      <vType id="passenger#24" emissionClass="PHEMlight/LNF_G_EU2_II" probability="0.000787963234639" width="1.9" length="4.7" maxSpeed="50" guiShape="delivery" minGap="2.5" accel="2.9" decel="4.5" height="1.73"/>
      <vType id="passenger#25" emissionClass="PHEMlight/LNF_G_EU4_II" probability="0.00147303398762" width="1.9" length="4.7" maxSpeed="50" guiShape="delivery" minGap="2.5" accel="2.9" decel="4.5" height="1.73"/>
   </vTypeDistribution>

   <vTypeDistribution id="motorcycle">
      <vType id="motorcycle#0" emissionClass="PHEMlight/MR_G_EU0_4T" probability="0.103947225654" width="1.8" length="2.2" maxSpeed="50" guiShape="motorcycle" minGap="2.5" accel="6" decel="4.5" height="1.5"/>
      <vType id="motorcycle#1" emissionClass="PHEMlight/MR_G_EU1_2T" probability="0.00924987639864" width="1.8" length="2.2" maxSpeed="50" guiShape="motorcycle" minGap="2.5" accel="6" decel="4.5" height="1.5"/>
      <vType id="motorcycle#2" emissionClass="PHEMlight/MR_G_EU3_2T" probability="0.000604794321096" width="1.8" length="2.2" maxSpeed="50" guiShape="motorcycle" minGap="2.5" accel="6" decel="4.5" height="1.5"/>
      <vType id="motorcycle#3" emissionClass="PHEMlight/MR_G_EU0_2T" probability="0.00656812932513" width="1.8" length="2.2" maxSpeed="50" guiShape="motorcycle" minGap="2.5" accel="6" decel="4.5" height="1.5"/>
      <vType id="motorcycle#4" emissionClass="PHEMlight/MR_G_EU5_4T" probability="0.0" width="1.8" length="2.2" maxSpeed="50" guiShape="motorcycle" minGap="2.5" accel="6" decel="4.5" height="1.5"/>
      <vType id="motorcycle#5" emissionClass="PHEMlight/MR_G_EU2_2T" probability="0.000165586366735" width="1.8" length="2.2" maxSpeed="50" guiShape="motorcycle" minGap="2.5" accel="6" decel="4.5" height="1.5"/>
      <vType id="motorcycle#6" emissionClass="PHEMlight/MR_G_EU3_4T" probability="0.239936945997" width="1.8" length="2.2" maxSpeed="50" guiShape="motorcycle" minGap="2.5" accel="6" decel="4.5" height="1.5"/>
      <vType id="motorcycle#7" emissionClass="PHEMlight/MR_G_EU6_4T" probability="0.0" width="1.8" length="2.2" maxSpeed="50" guiShape="motorcycle" minGap="2.5" accel="6" decel="4.5" height="1.5"/>
      <vType id="motorcycle#8" emissionClass="PHEMlight/MR_G_EU4_4T" probability="0.0" width="1.8" length="2.2" maxSpeed="50" guiShape="motorcycle" minGap="2.5" accel="6" decel="4.5" height="1.5"/>
      <vType id="motorcycle#9" emissionClass="PHEMlight/MR_G_EU2_4T" probability="0.112841142696" width="1.8" length="2.2" maxSpeed="50" guiShape="motorcycle" minGap="2.5" accel="6" decel="4.5" height="1.5"/>
      <vType id="motorcycle#10" emissionClass="PHEMlight/MR_G_EU5_2T" probability="0.0" width="1.8" length="2.2" maxSpeed="50" guiShape="motorcycle" minGap="2.5" accel="6" decel="4.5" height="1.5"/>
      <vType id="motorcycle#11" emissionClass="PHEMlight/MR_G_EU4_2T" probability="0.0" width="1.8" length="2.2" maxSpeed="50" guiShape="motorcycle" minGap="2.5" accel="6" decel="4.5" height="1.5"/>
      <vType id="motorcycle#12" emissionClass="PHEMlight/MR_G_EU1_4T" probability="0.526686299242" width="1.8" length="2.2" maxSpeed="50" guiShape="motorcycle" minGap="2.5" accel="6" decel="4.5" height="1.5"/>
      <vType id="motorcycle#13" emissionClass="PHEMlight/MR_G_EU6_2T" probability="0.0" width="1.8" length="2.2" maxSpeed="50" guiShape="motorcycle" minGap="2.5" accel="6" decel="4.5" height="1.5"/>
   </vTypeDistribution>

   <vTypeDistribution id="bus">
      <vType id="bus#0" emissionClass="PHEMlight/LB_D_EU0" probability="0.0399968672045" width="2.5" length="12" maxSpeed="23.6" guiShape="bus" minGap="2.5" accel="1.2" decel="4.5" height="3.4"/>
      <vType id="bus#1" emissionClass="PHEMlight/LB_D_EU1" probability="0.0571729939774" width="2.5" length="12" maxSpeed="23.6" guiShape="bus" minGap="2.5" accel="1.2" decel="4.5" height="3.4"/>
      <vType id="bus#2" emissionClass="PHEMlight/LB_D_EU2" probability="0.27028995278" width="2.5" length="12" maxSpeed="23.6" guiShape="bus" minGap="2.5" accel="1.2" decel="4.5" height="3.4"/>
      <vType id="bus#3" emissionClass="PHEMlight/LB_D_EU3" probability="0.305045841554" width="2.5" length="12" maxSpeed="23.6" guiShape="bus" minGap="2.5" accel="1.2" decel="4.5" height="3.4"/>
      <vType id="bus#4" emissionClass="PHEMlight/LB_D_EU4" probability="0.0890732594452" width="2.5" length="12" maxSpeed="23.6" guiShape="bus" minGap="2.5" accel="1.2" decel="4.5" height="3.4"/>
      <vType id="bus#5" emissionClass="PHEMlight/LB_D_EU5" probability="0.238421085039" width="2.5" length="12" maxSpeed="23.6" guiShape="bus" minGap="2.5" accel="1.2" decel="4.5" height="3.4"/>
      <vType id="bus#6" emissionClass="PHEMlight/LB_D_EU6" probability="0.0" width="2.5" length="12" maxSpeed="23.6" guiShape="bus" minGap="2.5" accel="1.2" decel="4.5" height="3.4"/>
   </vTypeDistribution>

   <vTypeDistribution id="hdv">
      <vType id="hdv#0" emissionClass="PHEMlight/Solo_LKW_D_EU0_II" probability="0.0167732586177" width="2.4" length="7.1" maxSpeed="36.1" guiShape="truck" minGap="2.5" accel="1.3" decel="4.5" height="3"/>
      <vType id="hdv#1" emissionClass="PHEMlight/Solo_LKW_D_EU1_I" probability="0.0295024413443" width="2.4" length="7.1" maxSpeed="36.1" guiShape="truck" minGap="2.5" accel="1.3" decel="4.5" height="3"/>
      <vType id="hdv#2" emissionClass="PHEMlight/Solo_LKW_D_EU6_II" probability="0.0" width="2.4" length="7.1" maxSpeed="36.1" guiShape="truck" minGap="2.5" accel="1.3" decel="4.5" height="3"/>
      <vType id="hdv#3" emissionClass="PHEMlight/LSZ_D_EU5" probability="0.0805316202107" width="2.55" length="16.5" maxSpeed="36.1" guiShape="truck/semitrailer" minGap="2.5" accel="1.1" decel="4.5" height="4"/>
      <vType id="hdv#4" emissionClass="PHEMlight/LSZ_D_EU0" probability="0.00182382958537" width="2.55" length="16.5" maxSpeed="36.1" guiShape="truck/semitrailer" minGap="2.5" accel="1.1" decel="4.5" height="4"/>
      <vType id="hdv#5" emissionClass="PHEMlight/Solo_LKW_D_EU5_I" probability="0.0889544712203" width="2.4" length="7.1" maxSpeed="36.1" guiShape="truck" minGap="2.5" accel="1.3" decel="4.5" height="3"/>
      <vType id="hdv#6" emissionClass="PHEMlight/LSZ_D_EU2" probability="0.0184523453496" width="2.55" length="16.5" maxSpeed="36.1" guiShape="truck/semitrailer" minGap="2.5" accel="1.1" decel="4.5" height="4"/>
      <vType id="hdv#7" emissionClass="PHEMlight/Solo_LKW_D_EU5_II" probability="0.127197992305" width="2.4" length="7.1" maxSpeed="36.1" guiShape="truck" minGap="2.5" accel="1.3" decel="4.5" height="3"/>
      <vType id="hdv#8" emissionClass="PHEMlight/Solo_LKW_D_EU4_II" probability="0.0522526488265" width="2.4" length="7.1" maxSpeed="36.1" guiShape="truck" minGap="2.5" accel="1.3" decel="4.5" height="3"/>
      <vType id="hdv#9" emissionClass="PHEMlight/Solo_LKW_D_EU6_I" probability="0.0" width="2.4" length="7.1" maxSpeed="36.1" guiShape="truck" minGap="2.5" accel="1.3" decel="4.5" height="3"/>
      <vType id="hdv#10" emissionClass="PHEMlight/Solo_LKW_D_EU1_II" probability="0.0289828842321" width="2.4" length="7.1" maxSpeed="36.1" guiShape="truck" minGap="2.5" accel="1.3" decel="4.5" height="3"/>
      <vType id="hdv#11" emissionClass="PHEMlight/LSZ_D_EU4" probability="0.0299789810023" width="2.55" length="16.5" maxSpeed="36.1" guiShape="truck/semitrailer" minGap="2.5" accel="1.1" decel="4.5" height="4"/>
      <vType id="hdv#12" emissionClass="PHEMlight/Solo_LKW_D_EU3_II" probability="0.156719113603" width="2.4" length="7.1" maxSpeed="36.1" guiShape="truck" minGap="2.5" accel="1.3" decel="4.5" height="3"/>
      <vType id="hdv#13" emissionClass="PHEMlight/Solo_LKW_D_EU2_I" probability="0.0569476440792" width="2.4" length="7.1" maxSpeed="36.1" guiShape="truck" minGap="2.5" accel="1.3" decel="4.5" height="3"/>
      <vType id="hdv#14" emissionClass="PHEMlight/LSZ_D_EU3" probability="0.0681248507926" width="2.55" length="16.5" maxSpeed="36.1" guiShape="truck/semitrailer" minGap="2.5" accel="1.1" decel="4.5" height="4"/>
      <vType id="hdv#15" emissionClass="PHEMlight/Solo_LKW_D_EU0_I" probability="0.0243537709638" width="2.4" length="7.1" maxSpeed="36.1" guiShape="truck" minGap="2.5" accel="1.3" decel="4.5" height="3"/>
      <vType id="hdv#16" emissionClass="PHEMlight/LSZ_D_EU6" probability="0.0" width="2.55" length="16.5" maxSpeed="36.1" guiShape="truck/semitrailer" minGap="2.5" accel="1.1" decel="4.5" height="4"/>
      <vType id="hdv#17" emissionClass="PHEMlight/LSZ_D_EU1" probability="0.00400584559331" width="2.55" length="16.5" maxSpeed="36.1" guiShape="truck/semitrailer" minGap="2.5" accel="1.1" decel="4.5" height="4"/>
      <vType id="hdv#18" emissionClass="PHEMlight/Solo_LKW_D_EU4_I" probability="0.0352179378218" width="2.4" length="7.1" maxSpeed="36.1" guiShape="truck" minGap="2.5" accel="1.3" decel="4.5" height="3"/>
      <vType id="hdv#19" emissionClass="PHEMlight/Solo_LKW_D_EU2_II" probability="0.0661562917444" width="2.4" length="7.1" maxSpeed="36.1" guiShape="truck" minGap="2.5" accel="1.3" decel="4.5" height="3"/>
      <vType id="hdv#20" emissionClass="PHEMlight/Solo_LKW_D_EU3_I" probability="0.114024072708" width="2.4" length="7.1" maxSpeed="36.1" guiShape="truck" minGap="2.5" accel="1.3" decel="4.5" height="3"/>
   </vTypeDistribution>

</routes>
