<routes>
   <vType id="pedestrian" length=".215" width=".478" height="1.719" minGap=".5" accel="1.5" decel="2" maxSpeed="1.5" emissionClass="PHEMlight/zero" guiShape="pedestrian"/>
   <vType id="bicycle" length="1.6" width=".65" height="1.7" minGap=".5" accel="1.2" decel="4.5" maxSpeed="5.55" emissionClass="PHEMlight/zero" guiShape="bicycle"/>

   <vTypeDistribution id="passenger">
      <vType id="passenger#0" emissionClass="PHEMlight/LNF_G_EU0_II" probability="1.59369189079e-40" width="1.9" length="4.7" maxSpeed="50" guiShape="delivery" minGap="2.5" accel="2.9" decel="4.5" height="1.73"/>
      <vType id="passenger#1" emissionClass="PHEMlight/LNF_D_EU2_II" probability="3.85081483693e-12" width="1.9" length="4.7" maxSpeed="50" guiShape="delivery" minGap="2.5" accel="2.9" decel="4.5" height="1.73"/>
      <vType id="passenger#2" emissionClass="PHEMlight/LNF_D_EU5_II" probability="0.0384009572301" width="1.9" length="4.7" maxSpeed="50" guiShape="delivery" minGap="2.5" accel="2.9" decel="4.5" height="1.73"/>
      <vType id="passenger#3" emissionClass="PHEMlight/LNF_G_EU3_II" probability="1.69724253241e-06" width="1.9" length="4.7" maxSpeed="50" guiShape="delivery" minGap="2.5" accel="2.9" decel="4.5" height="1.73"/>
      <vType id="passenger#4" emissionClass="PHEMlight/PKW_G_EU6" probability="0.171771413788" width="1.8" length="4.3" maxSpeed="50" guiShape="passenger" minGap="2.5" accel="2.9" decel="4.5" height="1.5"/>
      <vType id="passenger#5" emissionClass="PHEMlight/PKW_G_EU4" probability="0.0539691703741" width="1.8" length="4.3" maxSpeed="50" guiShape="passenger" minGap="2.5" accel="2.9" decel="4.5" height="1.5"/>
      <vType id="passenger#6" emissionClass="PHEMlight/PKW_G_EU5" probability="0.0913292654701" width="1.8" length="4.3" maxSpeed="50" guiShape="passenger" minGap="2.5" accel="2.9" decel="4.5" height="1.5"/>
      <vType id="passenger#7" emissionClass="PHEMlight/PKW_G_EU2" probability="0.0155253210428" width="1.8" length="4.3" maxSpeed="50" guiShape="passenger" minGap="2.5" accel="2.9" decel="4.5" height="1.5"/>
      <vType id="passenger#8" emissionClass="PHEMlight/PKW_G_EU3" probability="0.010735704036" width="1.8" length="4.3" maxSpeed="50" guiShape="passenger" minGap="2.5" accel="2.9" decel="4.5" height="1.5"/>
      <vType id="passenger#9" emissionClass="PHEMlight/PKW_G_EU0" probability="0.00813509515138" width="1.8" length="4.3" maxSpeed="50" guiShape="passenger" minGap="2.5" accel="2.9" decel="4.5" height="1.5"/>
      <vType id="passenger#10" emissionClass="PHEMlight/LNF_D_EU4_II" probability="0.0236750752448" width="1.9" length="4.7" maxSpeed="50" guiShape="delivery" minGap="2.5" accel="2.9" decel="4.5" height="1.73"/>
      <vType id="passenger#11" emissionClass="PHEMlight/LNF_G_EU5_II" probability="0.00085587183925" width="1.9" length="4.7" maxSpeed="50" guiShape="delivery" minGap="2.5" accel="2.9" decel="4.5" height="1.73"/>
      <vType id="passenger#12" emissionClass="PHEMlight/LNF_D_EU6_II" probability="0.0669399776339" width="1.9" length="4.7" maxSpeed="50" guiShape="delivery" minGap="2.5" accel="2.9" decel="4.5" height="1.73"/>
      <vType id="passenger#13" emissionClass="PHEMlight/PKW_D_EU1" probability="0.0103678863043" width="1.8" length="4.3" maxSpeed="50" guiShape="passenger" minGap="2.5" accel="2.9" decel="4.5" height="1.5"/>
      <vType id="passenger#14" emissionClass="PHEMlight/PKW_D_EU0" probability="0.00103252795903" width="1.8" length="4.3" maxSpeed="50" guiShape="passenger" minGap="2.5" accel="2.9" decel="4.5" height="1.5"/>
      <vType id="passenger#15" emissionClass="PHEMlight/PKW_D_EU3" probability="0.0418661473336" width="1.8" length="4.3" maxSpeed="50" guiShape="passenger" minGap="2.5" accel="2.9" decel="4.5" height="1.5"/>
      <vType id="passenger#16" emissionClass="PHEMlight/PKW_D_EU2" probability="0.0195232942635" width="1.8" length="4.3" maxSpeed="50" guiShape="passenger" minGap="2.5" accel="2.9" decel="4.5" height="1.5"/>
      <vType id="passenger#17" emissionClass="PHEMlight/LNF_G_EU6_II" probability="0.00131791370118" width="1.9" length="4.7" maxSpeed="50" guiShape="delivery" minGap="2.5" accel="2.9" decel="4.5" height="1.73"/>
      <vType id="passenger#18" emissionClass="PHEMlight/PKW_D_EU4" probability="0.0748819004251" width="1.8" length="4.3" maxSpeed="50" guiShape="passenger" minGap="2.5" accel="2.9" decel="4.5" height="1.5"/>
      <vType id="passenger#19" emissionClass="PHEMlight/PKW_D_EU6" probability="0.239455585604" width="1.8" length="4.3" maxSpeed="50" guiShape="passenger" minGap="2.5" accel="2.9" decel="4.5" height="1.5"/>
      <vType id="passenger#20" emissionClass="PHEMlight/LNF_D_EU1_II" probability="1.14708121849e-16" width="1.9" length="4.7" maxSpeed="50" guiShape="delivery" minGap="2.5" accel="2.9" decel="4.5" height="1.73"/>
      <vType id="passenger#21" emissionClass="PHEMlight/LNF_D_EU0_II" probability="2.95584350387e-40" width="1.9" length="4.7" maxSpeed="50" guiShape="delivery" minGap="2.5" accel="2.9" decel="4.5" height="1.73"/>
      <vType id="passenger#22" emissionClass="PHEMlight/PKW_D_EU5" probability="0.129554850098" width="1.8" length="4.3" maxSpeed="50" guiShape="passenger" minGap="2.5" accel="2.9" decel="4.5" height="1.5"/>
      <vType id="passenger#23" emissionClass="PHEMlight/LNF_D_EU3_II" probability="6.54462364499e-05" width="1.9" length="4.7" maxSpeed="50" guiShape="delivery" minGap="2.5" accel="2.9" decel="4.5" height="1.73"/>
      <vType id="passenger#24" emissionClass="PHEMlight/LNF_G_EU2_II" probability="1.44981038931e-12" width="1.9" length="4.7" maxSpeed="50" guiShape="delivery" minGap="2.5" accel="2.9" decel="4.5" height="1.73"/>
      <vType id="passenger#25" emissionClass="PHEMlight/LNF_G_EU4_II" probability="0.000594899015578" width="1.9" length="4.7" maxSpeed="50" guiShape="delivery" minGap="2.5" accel="2.9" decel="4.5" height="1.73"/>
   </vTypeDistribution>

   <vTypeDistribution id="motorcycle">
      <vType id="motorcycle#0" emissionClass="PHEMlight/MR_G_EU0_4T" probability="0.0271367181284" width="1.8" length="2.2" maxSpeed="50" guiShape="motorcycle" minGap="2.5" accel="6" decel="4.5" height="1.5"/>
      <vType id="motorcycle#1" emissionClass="PHEMlight/MR_G_EU1_2T" probability="0.00347795188109" width="1.8" length="2.2" maxSpeed="50" guiShape="motorcycle" minGap="2.5" accel="6" decel="4.5" height="1.5"/>
      <vType id="motorcycle#2" emissionClass="PHEMlight/MR_G_EU3_2T" probability="0.000651562761959" width="1.8" length="2.2" maxSpeed="50" guiShape="motorcycle" minGap="2.5" accel="6" decel="4.5" height="1.5"/>
      <vType id="motorcycle#3" emissionClass="PHEMlight/MR_G_EU0_2T" probability="0.00194812777636" width="1.8" length="2.2" maxSpeed="50" guiShape="motorcycle" minGap="2.5" accel="6" decel="4.5" height="1.5"/>
      <vType id="motorcycle#4" emissionClass="PHEMlight/MR_G_EU5_4T" probability="0.440334803211" width="1.8" length="2.2" maxSpeed="50" guiShape="motorcycle" minGap="2.5" accel="6" decel="4.5" height="1.5"/>
      <vType id="motorcycle#5" emissionClass="PHEMlight/MR_G_EU2_2T" probability="9.07742299416e-05" width="1.8" length="2.2" maxSpeed="50" guiShape="motorcycle" minGap="2.5" accel="6" decel="4.5" height="1.5"/>
      <vType id="motorcycle#6" emissionClass="PHEMlight/MR_G_EU3_4T" probability="0.179304861162" width="1.8" length="2.2" maxSpeed="50" guiShape="motorcycle" minGap="2.5" accel="6" decel="4.5" height="1.5"/>
      <vType id="motorcycle#7" emissionClass="PHEMlight/MR_G_EU6_4T" probability="0.0" width="1.8" length="2.2" maxSpeed="50" guiShape="motorcycle" minGap="2.5" accel="6" decel="4.5" height="1.5"/>
      <vType id="motorcycle#8" emissionClass="PHEMlight/MR_G_EU4_4T" probability="0.0929723588759" width="1.8" length="2.2" maxSpeed="50" guiShape="motorcycle" minGap="2.5" accel="6" decel="4.5" height="1.5"/>
      <vType id="motorcycle#9" emissionClass="PHEMlight/MR_G_EU2_4T" probability="0.0539709840918" width="1.8" length="2.2" maxSpeed="50" guiShape="motorcycle" minGap="2.5" accel="6" decel="4.5" height="1.5"/>
      <vType id="motorcycle#10" emissionClass="PHEMlight/MR_G_EU5_2T" probability="0.00518836912088" width="1.8" length="2.2" maxSpeed="50" guiShape="motorcycle" minGap="2.5" accel="6" decel="4.5" height="1.5"/>
      <vType id="motorcycle#11" emissionClass="PHEMlight/MR_G_EU4_2T" probability="0.00148946530523" width="1.8" length="2.2" maxSpeed="50" guiShape="motorcycle" minGap="2.5" accel="6" decel="4.5" height="1.5"/>
      <vType id="motorcycle#12" emissionClass="PHEMlight/MR_G_EU1_4T" probability="0.193434023455" width="1.8" length="2.2" maxSpeed="50" guiShape="motorcycle" minGap="2.5" accel="6" decel="4.5" height="1.5"/>
      <vType id="motorcycle#13" emissionClass="PHEMlight/MR_G_EU6_2T" probability="0.0" width="1.8" length="2.2" maxSpeed="50" guiShape="motorcycle" minGap="2.5" accel="6" decel="4.5" height="1.5"/>
   </vTypeDistribution>

   <vTypeDistribution id="bus">
      <vType id="bus#0" emissionClass="PHEMlight/LB_D_EU0" probability="0.00198320115099" width="2.5" length="12" maxSpeed="23.6" guiShape="bus" minGap="2.5" accel="1.2" decel="4.5" height="3.4"/>
      <vType id="bus#1" emissionClass="PHEMlight/LB_D_EU1" probability="0.00194343043787" width="2.5" length="12" maxSpeed="23.6" guiShape="bus" minGap="2.5" accel="1.2" decel="4.5" height="3.4"/>
      <vType id="bus#2" emissionClass="PHEMlight/LB_D_EU2" probability="0.0069401427767" width="2.5" length="12" maxSpeed="23.6" guiShape="bus" minGap="2.5" accel="1.2" decel="4.5" height="3.4"/>
      <vType id="bus#3" emissionClass="PHEMlight/LB_D_EU3" probability="0.0107599228555" width="2.5" length="12" maxSpeed="23.6" guiShape="bus" minGap="2.5" accel="1.2" decel="4.5" height="3.4"/>
      <vType id="bus#4" emissionClass="PHEMlight/LB_D_EU4" probability="0.00485722431009" width="2.5" length="12" maxSpeed="23.6" guiShape="bus" minGap="2.5" accel="1.2" decel="4.5" height="3.4"/>
      <vType id="bus#5" emissionClass="PHEMlight/LB_D_EU5" probability="0.0463405879779" width="2.5" length="12" maxSpeed="23.6" guiShape="bus" minGap="2.5" accel="1.2" decel="4.5" height="3.4"/>
      <vType id="bus#6" emissionClass="PHEMlight/LB_D_EU6" probability="0.927175490491" width="2.5" length="12" maxSpeed="23.6" guiShape="bus" minGap="2.5" accel="1.2" decel="4.5" height="3.4"/>
   </vTypeDistribution>

   <vTypeDistribution id="hdv">
      <vType id="hdv#0" emissionClass="PHEMlight/Solo_LKW_D_EU0_II" probability="3.48792862741e-32" width="2.4" length="7.1" maxSpeed="36.1" guiShape="truck" minGap="2.5" accel="1.3" decel="4.5" height="3"/>
      <vType id="hdv#1" emissionClass="PHEMlight/Solo_LKW_D_EU1_I" probability="1.62314661142e-24" width="2.4" length="7.1" maxSpeed="36.1" guiShape="truck" minGap="2.5" accel="1.3" decel="4.5" height="3"/>
      <vType id="hdv#2" emissionClass="PHEMlight/Solo_LKW_D_EU6_II" probability="0.464237763575" width="2.4" length="7.1" maxSpeed="36.1" guiShape="truck" minGap="2.5" accel="1.3" decel="4.5" height="3"/>
      <vType id="hdv#3" emissionClass="PHEMlight/LSZ_D_EU5" probability="0.00196628983605" width="2.55" length="16.5" maxSpeed="36.1" guiShape="truck/semitrailer" minGap="2.5" accel="1.1" decel="4.5" height="4"/>
      <vType id="hdv#4" emissionClass="PHEMlight/LSZ_D_EU0" probability="1.70367292878e-05" width="2.55" length="16.5" maxSpeed="36.1" guiShape="truck/semitrailer" minGap="2.5" accel="1.1" decel="4.5" height="4"/>
      <vType id="hdv#5" emissionClass="PHEMlight/Solo_LKW_D_EU5_I" probability="0.0197299262642" width="2.4" length="7.1" maxSpeed="36.1" guiShape="truck" minGap="2.5" accel="1.3" decel="4.5" height="3"/>
      <vType id="hdv#6" emissionClass="PHEMlight/LSZ_D_EU2" probability="0.000106262372838" width="2.55" length="16.5" maxSpeed="36.1" guiShape="truck/semitrailer" minGap="2.5" accel="1.1" decel="4.5" height="4"/>
      <vType id="hdv#7" emissionClass="PHEMlight/Solo_LKW_D_EU5_II" probability="0.0261739635825" width="2.4" length="7.1" maxSpeed="36.1" guiShape="truck" minGap="2.5" accel="1.3" decel="4.5" height="3"/>
      <vType id="hdv#8" emissionClass="PHEMlight/Solo_LKW_D_EU4_II" probability="0.00210924631674" width="2.4" length="7.1" maxSpeed="36.1" guiShape="truck" minGap="2.5" accel="1.3" decel="4.5" height="3"/>
      <vType id="hdv#9" emissionClass="PHEMlight/Solo_LKW_D_EU6_I" probability="0.339114788659" width="2.4" length="7.1" maxSpeed="36.1" guiShape="truck" minGap="2.5" accel="1.3" decel="4.5" height="3"/>
      <vType id="hdv#10" emissionClass="PHEMlight/Solo_LKW_D_EU1_II" probability="1.90846995807e-24" width="2.4" length="7.1" maxSpeed="36.1" guiShape="truck" minGap="2.5" accel="1.3" decel="4.5" height="3"/>
      <vType id="hdv#11" emissionClass="PHEMlight/LSZ_D_EU4" probability="0.000161324861104" width="2.55" length="16.5" maxSpeed="36.1" guiShape="truck/semitrailer" minGap="2.5" accel="1.1" decel="4.5" height="4"/>
      <vType id="hdv#12" emissionClass="PHEMlight/Solo_LKW_D_EU3_II" probability="0.000123698660189" width="2.4" length="7.1" maxSpeed="36.1" guiShape="truck" minGap="2.5" accel="1.3" decel="4.5" height="3"/>
      <vType id="hdv#13" emissionClass="PHEMlight/Solo_LKW_D_EU2_I" probability="5.12119904909e-15" width="2.4" length="7.1" maxSpeed="36.1" guiShape="truck" minGap="2.5" accel="1.3" decel="4.5" height="3"/>
      <vType id="hdv#14" emissionClass="PHEMlight/LSZ_D_EU3" probability="0.000333168699793" width="2.55" length="16.5" maxSpeed="36.1" guiShape="truck/semitrailer" minGap="2.5" accel="1.1" decel="4.5" height="4"/>
      <vType id="hdv#15" emissionClass="PHEMlight/Solo_LKW_D_EU0_I" probability="3.83802805129e-32" width="2.4" length="7.1" maxSpeed="36.1" guiShape="truck" minGap="2.5" accel="1.3" decel="4.5" height="3"/>
      <vType id="hdv#16" emissionClass="PHEMlight/LSZ_D_EU6" probability="0.14434960856" width="2.55" length="16.5" maxSpeed="36.1" guiShape="truck/semitrailer" minGap="2.5" accel="1.1" decel="4.5" height="4"/>
      <vType id="hdv#17" emissionClass="PHEMlight/LSZ_D_EU1" probability="2.79876937449e-05" width="2.55" length="16.5" maxSpeed="36.1" guiShape="truck/semitrailer" minGap="2.5" accel="1.1" decel="4.5" height="4"/>
      <vType id="hdv#18" emissionClass="PHEMlight/Solo_LKW_D_EU4_I" probability="0.00146176780684" width="2.4" length="7.1" maxSpeed="36.1" guiShape="truck" minGap="2.5" accel="1.3" decel="4.5" height="3"/>
      <vType id="hdv#19" emissionClass="PHEMlight/Solo_LKW_D_EU2_II" probability="6.56448180707e-15" width="2.4" length="7.1" maxSpeed="36.1" guiShape="truck" minGap="2.5" accel="1.3" decel="4.5" height="3"/>
      <vType id="hdv#20" emissionClass="PHEMlight/Solo_LKW_D_EU3_I" probability="8.71663827626e-05" width="2.4" length="7.1" maxSpeed="36.1" guiShape="truck" minGap="2.5" accel="1.3" decel="4.5" height="3"/>
   </vTypeDistribution>

</routes>
