<routes>
   <vType id="pedestrian" length=".215" width=".478" height="1.719" minGap=".5" accel="1.5" decel="2" maxSpeed="1.5" emissionClass="PHEMlight/zero" guiShape="pedestrian"/>
   <vType id="bicycle" length="1.6" width=".65" height="1.7" minGap=".5" accel="1.2" decel="4.5" maxSpeed="5.55" emissionClass="PHEMlight/zero" guiShape="bicycle"/>

   <vTypeDistribution id="passenger">
      <vType id="passenger#0" emissionClass="PHEMlight/LNF_G_EU0_II" probability="8.50116835737e-11" width="1.9" length="4.7" maxSpeed="50" guiShape="delivery" minGap="2.5" accel="2.9" decel="4.5" height="1.73"/>
      <vType id="passenger#1" emissionClass="PHEMlight/LNF_D_EU2_II" probability="0.00517309230392" width="1.9" length="4.7" maxSpeed="50" guiShape="delivery" minGap="2.5" accel="2.9" decel="4.5" height="1.73"/>
      <vType id="passenger#2" emissionClass="PHEMlight/LNF_D_EU5_II" probability="0.030986460062" width="1.9" length="4.7" maxSpeed="50" guiShape="delivery" minGap="2.5" accel="2.9" decel="4.5" height="1.73"/>
      <vType id="passenger#3" emissionClass="PHEMlight/LNF_G_EU3_II" probability="0.000366487088067" width="1.9" length="4.7" maxSpeed="50" guiShape="delivery" minGap="2.5" accel="2.9" decel="4.5" height="1.73"/>
      <vType id="passenger#4" emissionClass="PHEMlight/PKW_G_EU6" probability="0.00834237112591" width="1.8" length="4.3" maxSpeed="50" guiShape="passenger" minGap="2.5" accel="2.9" decel="4.5" height="1.5"/>
      <vType id="passenger#5" emissionClass="PHEMlight/PKW_G_EU4" probability="0.129872931396" width="1.8" length="4.3" maxSpeed="50" guiShape="passenger" minGap="2.5" accel="2.9" decel="4.5" height="1.5"/>
      <vType id="passenger#6" emissionClass="PHEMlight/PKW_G_EU5" probability="0.179665438362" width="1.8" length="4.3" maxSpeed="50" guiShape="passenger" minGap="2.5" accel="2.9" decel="4.5" height="1.5"/>
      <vType id="passenger#7" emissionClass="PHEMlight/PKW_G_EU2" probability="0.0163847185425" width="1.8" length="4.3" maxSpeed="50" guiShape="passenger" minGap="2.5" accel="2.9" decel="4.5" height="1.5"/>
      <vType id="passenger#8" emissionClass="PHEMlight/PKW_G_EU3" probability="0.0187183770727" width="1.8" length="4.3" maxSpeed="50" guiShape="passenger" minGap="2.5" accel="2.9" decel="4.5" height="1.5"/>
      <vType id="passenger#9" emissionClass="PHEMlight/PKW_G_EU0" probability="0.00720913873355" width="1.8" length="4.3" maxSpeed="50" guiShape="passenger" minGap="2.5" accel="2.9" decel="4.5" height="1.5"/>
      <vType id="passenger#10" emissionClass="PHEMlight/LNF_D_EU4_II" probability="0.0417249785676" width="1.9" length="4.7" maxSpeed="50" guiShape="delivery" minGap="2.5" accel="2.9" decel="4.5" height="1.73"/>
      <vType id="passenger#11" emissionClass="PHEMlight/LNF_G_EU5_II" probability="0.000761724167005" width="1.9" length="4.7" maxSpeed="50" guiShape="delivery" minGap="2.5" accel="2.9" decel="4.5" height="1.73"/>
      <vType id="passenger#12" emissionClass="PHEMlight/LNF_D_EU6_II" probability="0.00030178992775" width="1.9" length="4.7" maxSpeed="50" guiShape="delivery" minGap="2.5" accel="2.9" decel="4.5" height="1.73"/>
      <vType id="passenger#13" emissionClass="PHEMlight/PKW_D_EU1" probability="0.0101290537654" width="1.8" length="4.3" maxSpeed="50" guiShape="passenger" minGap="2.5" accel="2.9" decel="4.5" height="1.5"/>
      <vType id="passenger#14" emissionClass="PHEMlight/PKW_D_EU0" probability="0.000942103253328" width="1.8" length="4.3" maxSpeed="50" guiShape="passenger" minGap="2.5" accel="2.9" decel="4.5" height="1.5"/>
      <vType id="passenger#15" emissionClass="PHEMlight/PKW_D_EU3" probability="0.0716324308627" width="1.8" length="4.3" maxSpeed="50" guiShape="passenger" minGap="2.5" accel="2.9" decel="4.5" height="1.5"/>
      <vType id="passenger#16" emissionClass="PHEMlight/PKW_D_EU2" probability="0.0205522807762" width="1.8" length="4.3" maxSpeed="50" guiShape="passenger" minGap="2.5" accel="2.9" decel="4.5" height="1.5"/>
      <vType id="passenger#17" emissionClass="PHEMlight/LNF_G_EU6_II" probability="7.06936976229e-06" width="1.9" length="4.7" maxSpeed="50" guiShape="delivery" minGap="2.5" accel="2.9" decel="4.5" height="1.73"/>
      <vType id="passenger#18" emissionClass="PHEMlight/PKW_D_EU4" probability="0.174175518534" width="1.8" length="4.3" maxSpeed="50" guiShape="passenger" minGap="2.5" accel="2.9" decel="4.5" height="1.5"/>
      <vType id="passenger#19" emissionClass="PHEMlight/PKW_D_EU6" probability="0.0106959711437" width="1.8" length="4.3" maxSpeed="50" guiShape="passenger" minGap="2.5" accel="2.9" decel="4.5" height="1.5"/>
      <vType id="passenger#20" emissionClass="PHEMlight/LNF_D_EU1_II" probability="0.00411619561203" width="1.9" length="4.7" maxSpeed="50" guiShape="delivery" minGap="2.5" accel="2.9" decel="4.5" height="1.73"/>
      <vType id="passenger#21" emissionClass="PHEMlight/LNF_D_EU0_II" probability="1.47606161978e-10" width="1.9" length="4.7" maxSpeed="50" guiShape="delivery" minGap="2.5" accel="2.9" decel="4.5" height="1.73"/>
      <vType id="passenger#22" emissionClass="PHEMlight/PKW_D_EU5" probability="0.250592654365" width="1.8" length="4.3" maxSpeed="50" guiShape="passenger" minGap="2.5" accel="2.9" decel="4.5" height="1.5"/>
      <vType id="passenger#23" emissionClass="PHEMlight/LNF_D_EU3_II" probability="0.0160494920139" width="1.9" length="4.7" maxSpeed="50" guiShape="delivery" minGap="2.5" accel="2.9" decel="4.5" height="1.73"/>
      <vType id="passenger#24" emissionClass="PHEMlight/LNF_G_EU2_II" probability="0.00037996283955" width="1.9" length="4.7" maxSpeed="50" guiShape="delivery" minGap="2.5" accel="2.9" decel="4.5" height="1.73"/>
      <vType id="passenger#25" emissionClass="PHEMlight/LNF_G_EU4_II" probability="0.00121975988284" width="1.9" length="4.7" maxSpeed="50" guiShape="delivery" minGap="2.5" accel="2.9" decel="4.5" height="1.73"/>
   </vTypeDistribution>

   <vTypeDistribution id="motorcycle">
      <vType id="motorcycle#0" emissionClass="PHEMlight/MR_G_EU0_4T" probability="0.0740899765224" width="1.8" length="2.2" maxSpeed="50" guiShape="motorcycle" minGap="2.5" accel="6" decel="4.5" height="1.5"/>
      <vType id="motorcycle#1" emissionClass="PHEMlight/MR_G_EU1_2T" probability="0.00756486463653" width="1.8" length="2.2" maxSpeed="50" guiShape="motorcycle" minGap="2.5" accel="6" decel="4.5" height="1.5"/>
      <vType id="motorcycle#2" emissionClass="PHEMlight/MR_G_EU3_2T" probability="0.00094970231189" width="1.8" length="2.2" maxSpeed="50" guiShape="motorcycle" minGap="2.5" accel="6" decel="4.5" height="1.5"/>
      <vType id="motorcycle#3" emissionClass="PHEMlight/MR_G_EU0_2T" probability="0.0048798186528" width="1.8" length="2.2" maxSpeed="50" guiShape="motorcycle" minGap="2.5" accel="6" decel="4.5" height="1.5"/>
      <vType id="motorcycle#4" emissionClass="PHEMlight/MR_G_EU5_4T" probability="0.0" width="1.8" length="2.2" maxSpeed="50" guiShape="motorcycle" minGap="2.5" accel="6" decel="4.5" height="1.5"/>
      <vType id="motorcycle#5" emissionClass="PHEMlight/MR_G_EU2_2T" probability="0.000143391682307" width="1.8" length="2.2" maxSpeed="50" guiShape="motorcycle" minGap="2.5" accel="6" decel="4.5" height="1.5"/>
      <vType id="motorcycle#6" emissionClass="PHEMlight/MR_G_EU3_4T" probability="0.287492481251" width="1.8" length="2.2" maxSpeed="50" guiShape="motorcycle" minGap="2.5" accel="6" decel="4.5" height="1.5"/>
      <vType id="motorcycle#7" emissionClass="PHEMlight/MR_G_EU6_4T" probability="0.0" width="1.8" length="2.2" maxSpeed="50" guiShape="motorcycle" minGap="2.5" accel="6" decel="4.5" height="1.5"/>
      <vType id="motorcycle#8" emissionClass="PHEMlight/MR_G_EU4_4T" probability="0.114900778041" width="1.8" length="2.2" maxSpeed="50" guiShape="motorcycle" minGap="2.5" accel="6" decel="4.5" height="1.5"/>
      <vType id="motorcycle#9" emissionClass="PHEMlight/MR_G_EU2_4T" probability="0.0933066741578" width="1.8" length="2.2" maxSpeed="50" guiShape="motorcycle" minGap="2.5" accel="6" decel="4.5" height="1.5"/>
      <vType id="motorcycle#10" emissionClass="PHEMlight/MR_G_EU5_2T" probability="0.0" width="1.8" length="2.2" maxSpeed="50" guiShape="motorcycle" minGap="2.5" accel="6" decel="4.5" height="1.5"/>
      <vType id="motorcycle#11" emissionClass="PHEMlight/MR_G_EU4_2T" probability="0.00173364324471" width="1.8" length="2.2" maxSpeed="50" guiShape="motorcycle" minGap="2.5" accel="6" decel="4.5" height="1.5"/>
      <vType id="motorcycle#12" emissionClass="PHEMlight/MR_G_EU1_4T" probability="0.4149386695" width="1.8" length="2.2" maxSpeed="50" guiShape="motorcycle" minGap="2.5" accel="6" decel="4.5" height="1.5"/>
      <vType id="motorcycle#13" emissionClass="PHEMlight/MR_G_EU6_2T" probability="0.0" width="1.8" length="2.2" maxSpeed="50" guiShape="motorcycle" minGap="2.5" accel="6" decel="4.5" height="1.5"/>
   </vTypeDistribution>

   <vTypeDistribution id="bus">
      <vType id="bus#0" emissionClass="PHEMlight/LB_D_EU0" probability="0.0216993618119" width="2.5" length="12" maxSpeed="23.6" guiShape="bus" minGap="2.5" accel="1.2" decel="4.5" height="3.4"/>
      <vType id="bus#1" emissionClass="PHEMlight/LB_D_EU1" probability="0.0256241317415" width="2.5" length="12" maxSpeed="23.6" guiShape="bus" minGap="2.5" accel="1.2" decel="4.5" height="3.4"/>
      <vType id="bus#2" emissionClass="PHEMlight/LB_D_EU2" probability="0.126652999948" width="2.5" length="12" maxSpeed="23.6" guiShape="bus" minGap="2.5" accel="1.2" decel="4.5" height="3.4"/>
      <vType id="bus#3" emissionClass="PHEMlight/LB_D_EU3" probability="0.237962628415" width="2.5" length="12" maxSpeed="23.6" guiShape="bus" minGap="2.5" accel="1.2" decel="4.5" height="3.4"/>
      <vType id="bus#4" emissionClass="PHEMlight/LB_D_EU4" probability="0.0794981828159" width="2.5" length="12" maxSpeed="23.6" guiShape="bus" minGap="2.5" accel="1.2" decel="4.5" height="3.4"/>
      <vType id="bus#5" emissionClass="PHEMlight/LB_D_EU5" probability="0.452537585087" width="2.5" length="12" maxSpeed="23.6" guiShape="bus" minGap="2.5" accel="1.2" decel="4.5" height="3.4"/>
      <vType id="bus#6" emissionClass="PHEMlight/LB_D_EU6" probability="0.0560251101807" width="2.5" length="12" maxSpeed="23.6" guiShape="bus" minGap="2.5" accel="1.2" decel="4.5" height="3.4"/>
   </vTypeDistribution>

   <vTypeDistribution id="hdv">
      <vType id="hdv#0" emissionClass="PHEMlight/Solo_LKW_D_EU0_II" probability="0.00290289505424" width="2.4" length="7.1" maxSpeed="36.1" guiShape="truck" minGap="2.5" accel="1.3" decel="4.5" height="3"/>
      <vType id="hdv#1" emissionClass="PHEMlight/Solo_LKW_D_EU1_I" probability="0.0161296736339" width="2.4" length="7.1" maxSpeed="36.1" guiShape="truck" minGap="2.5" accel="1.3" decel="4.5" height="3"/>
      <vType id="hdv#2" emissionClass="PHEMlight/Solo_LKW_D_EU6_II" probability="0.0379733466954" width="2.4" length="7.1" maxSpeed="36.1" guiShape="truck" minGap="2.5" accel="1.3" decel="4.5" height="3"/>
      <vType id="hdv#3" emissionClass="PHEMlight/LSZ_D_EU5" probability="0.102616483735" width="2.55" length="16.5" maxSpeed="36.1" guiShape="truck/semitrailer" minGap="2.5" accel="1.1" decel="4.5" height="4"/>
      <vType id="hdv#4" emissionClass="PHEMlight/LSZ_D_EU0" probability="0.00056340379083" width="2.55" length="16.5" maxSpeed="36.1" guiShape="truck/semitrailer" minGap="2.5" accel="1.1" decel="4.5" height="4"/>
      <vType id="hdv#5" emissionClass="PHEMlight/Solo_LKW_D_EU5_I" probability="0.183566175821" width="2.4" length="7.1" maxSpeed="36.1" guiShape="truck" minGap="2.5" accel="1.3" decel="4.5" height="3"/>
      <vType id="hdv#6" emissionClass="PHEMlight/LSZ_D_EU2" probability="0.00502155560656" width="2.55" length="16.5" maxSpeed="36.1" guiShape="truck/semitrailer" minGap="2.5" accel="1.1" decel="4.5" height="4"/>
      <vType id="hdv#7" emissionClass="PHEMlight/Solo_LKW_D_EU5_II" probability="0.245811579309" width="2.4" length="7.1" maxSpeed="36.1" guiShape="truck" minGap="2.5" accel="1.3" decel="4.5" height="3"/>
      <vType id="hdv#8" emissionClass="PHEMlight/Solo_LKW_D_EU4_II" probability="0.038256252705" width="2.4" length="7.1" maxSpeed="36.1" guiShape="truck" minGap="2.5" accel="1.3" decel="4.5" height="3"/>
      <vType id="hdv#9" emissionClass="PHEMlight/Solo_LKW_D_EU6_I" probability="0.0320432669869" width="2.4" length="7.1" maxSpeed="36.1" guiShape="truck" minGap="2.5" accel="1.3" decel="4.5" height="3"/>
      <vType id="hdv#10" emissionClass="PHEMlight/Solo_LKW_D_EU1_II" probability="0.0158134068863" width="2.4" length="7.1" maxSpeed="36.1" guiShape="truck" minGap="2.5" accel="1.3" decel="4.5" height="3"/>
      <vType id="hdv#11" emissionClass="PHEMlight/LSZ_D_EU4" probability="0.0110578336648" width="2.55" length="16.5" maxSpeed="36.1" guiShape="truck/semitrailer" minGap="2.5" accel="1.1" decel="4.5" height="4"/>
      <vType id="hdv#12" emissionClass="PHEMlight/Solo_LKW_D_EU3_II" probability="0.0982283303927" width="2.4" length="7.1" maxSpeed="36.1" guiShape="truck" minGap="2.5" accel="1.3" decel="4.5" height="3"/>
      <vType id="hdv#13" emissionClass="PHEMlight/Solo_LKW_D_EU2_I" probability="0.0309673136805" width="2.4" length="7.1" maxSpeed="36.1" guiShape="truck" minGap="2.5" accel="1.3" decel="4.5" height="3"/>
      <vType id="hdv#14" emissionClass="PHEMlight/LSZ_D_EU3" probability="0.0216271757713" width="2.55" length="16.5" maxSpeed="36.1" guiShape="truck/semitrailer" minGap="2.5" accel="1.1" decel="4.5" height="4"/>
      <vType id="hdv#15" emissionClass="PHEMlight/Solo_LKW_D_EU0_I" probability="0.0032481717438" width="2.4" length="7.1" maxSpeed="36.1" guiShape="truck" minGap="2.5" accel="1.3" decel="4.5" height="3"/>
      <vType id="hdv#16" emissionClass="PHEMlight/LSZ_D_EU6" probability="0.0204420702997" width="2.55" length="16.5" maxSpeed="36.1" guiShape="truck/semitrailer" minGap="2.5" accel="1.1" decel="4.5" height="4"/>
      <vType id="hdv#17" emissionClass="PHEMlight/LSZ_D_EU1" probability="0.00117578531534" width="2.55" length="16.5" maxSpeed="36.1" guiShape="truck/semitrailer" minGap="2.5" accel="1.1" decel="4.5" height="4"/>
      <vType id="hdv#18" emissionClass="PHEMlight/Solo_LKW_D_EU4_I" probability="0.0258915121237" width="2.4" length="7.1" maxSpeed="36.1" guiShape="truck" minGap="2.5" accel="1.3" decel="4.5" height="3"/>
      <vType id="hdv#19" emissionClass="PHEMlight/Solo_LKW_D_EU2_II" probability="0.0359282291953" width="2.4" length="7.1" maxSpeed="36.1" guiShape="truck" minGap="2.5" accel="1.3" decel="4.5" height="3"/>
      <vType id="hdv#20" emissionClass="PHEMlight/Solo_LKW_D_EU3_I" probability="0.0707355375892" width="2.4" length="7.1" maxSpeed="36.1" guiShape="truck" minGap="2.5" accel="1.3" decel="4.5" height="3"/>
   </vTypeDistribution>

</routes>
