<routes>
    <vehicle id="bus_11_0" depart="0" departPos="0" departLane="best" arrivalPos="-1" type="bus" color="0,1,0"><route edges="b52 b51 b56[0] b56[1][0] b56[1][1] bm66a bm66b b5[1][1][1] b8 b4[1][1][1]"/>
        <stop busStop="busStop#b15" duration="20"/>
        <stop busStop="busStop#b17" duration="20"/>
        <stop busStop="busStop#b19" duration="20"/>
        <stop busStop="busStop#b23" duration="20"/>
    </vehicle>
    <vehicle id="bus_12_0" depart="0" departPos="0" departLane="best" arrivalPos="-1" type="bus" color="0,1,0"><route edges="b3[0] b9 b11[0] b11[1][1] b101 b35[0] b35[1][0] b35[1][1][0] b20000+35[1][1][1][0] b35[1][1][1][1] am2 a54"/>
        <stop busStop="busStop#b22" duration="20"/>
        <stop busStop="busStop#b21" duration="20"/>
        <stop busStop="busStop#b16" duration="20"/>
        <stop busStop="busStop#b26" duration="20"/>
    </vehicle>
    <vehicle id="bus_1_0" depart="0" departPos="0" departLane="best" arrivalPos="-1" type="bus" color="0,1,0"><route edges="a55 a55b a125 b12 b56[0] b56[1][0] b56[1][1] b5[1][0]+66 b5[1][1][1] b8 b10"/>
        <stop busStop="busStop#b15" duration="20"/>
        <stop busStop="busStop#b17" duration="20"/>
        <stop busStop="busStop#b20" duration="20"/>
        <stop busStop="busStop#b23" duration="20"/>
    </vehicle>
    <vehicle id="bus_2_0" depart="0" departPos="0" departLane="best" arrivalPos="-1" type="bus" color="0,1,0"><route edges="b6 b100 b7 b9 b11[0] b11[1][1] b101 b35[0] b35[1][0] b35[1][1][0] b20000+35[1][1][1][0] b35[1][1][1][1] am2 a54"/>
        <stop busStop="busStop#b22" duration="20"/>
        <stop busStop="busStop#b21" duration="20"/>
        <stop busStop="busStop#b16" duration="20"/>
        <stop busStop="busStop#b26" duration="20"/>
    </vehicle>
    <vehicle id="bus_3_0" depart="0" departPos="0" departLane="best" arrivalPos="-1" type="bus" color="0,1,0"><route edges="b13[0] b14 b17[0] b17[1] b11[0] b11[1][1] b101 b35[0] b35[1][0] b35[1][1][0] b20000+35[1][1][1][0] b35[1][1][1][1] am2 a54"/>
        <stop busStop="busStop#b3" duration="20"/>
        <stop busStop="busStop#b6" duration="20"/>
        <stop busStop="busStop#b21" duration="20"/>
        <stop busStop="busStop#b16" duration="20"/>
        <stop busStop="busStop#b26" duration="20"/>
    </vehicle>
    <vehicle id="bus_9_0" depart="0" departPos="0" departLane="best" arrivalPos="-1" type="bus" color="0,1,0"><route edges="b63[0] b63[1] b4[0] b4[1][1][0] b9 b11[0] b11[1][1] bm66a bm66b b11[1][1] b101 b35[0] b35[1][0] b35[1][1][0] b20000+35[1][1][1][0] b35[1][1][1][1] am2 a54"/>
        <stop busStop="busStop#b25" duration="20"/>
        <stop busStop="busStop#b22" duration="20"/>
        <stop busStop="busStop#b21" duration="20"/>
        <stop busStop="busStop#b19" duration="20"/>
        <stop busStop="busStop#b16" duration="20"/>
        <stop busStop="busStop#b26" duration="20"/>
    </vehicle>
    <vehicle id="bus_14_0" depart="0" departPos="0" departLane="best" arrivalPos="-1" type="bus" color="0,1,0"><route edges="a78[0] a56a a56b a77bc a77cd a53cd a53[0] a78[1][1] a189[0] a189[1][0]+20000 a189[1][1] a188 a87[0] a20001+87[1][0] a87[1][1] am90 a89[0] a20002+89[1][0] a89[1][1] a91 a186 a109[0] a109[1][0]+20003 a109[1][1] a116 a46 a134 a134b"/>
        <stop busStop="busStop#a31" duration="20"/>
        <stop busStop="busStop#a32" duration="20"/>
        <stop busStop="busStop#a33" duration="20"/>
        <stop busStop="busStop#a34" duration="20"/>
        <stop busStop="busStop#a21" duration="20"/>
    </vehicle>
    <vehicle id="bus_4_20" depart="20" departPos="0" departLane="best" arrivalPos="-1" type="bus" color="0,1,0"><route edges="a55 a55b a125 b12 b56[0] b56[1][0] b56[1][1] b5[1][0]+66 b5[1][1][1] b16[0] b16[1] b18 b20+19b b2[1][1][1]b"/>
        <stop busStop="busStop#b15" duration="20"/>
        <stop busStop="busStop#b17" duration="20"/>
        <stop busStop="busStop#b18" duration="20"/>
        <stop busStop="busStop#b20" duration="20"/>
        <stop busStop="busStop#b7" duration="20"/>
        <stop busStop="busStop#b1" duration="20"/>
    </vehicle>
    <vehicle id="bus_5_50" depart="50" departPos="0" departLane="best" arrivalPos="-1" type="bus" color="0,1,0"><route edges="b13[0] b14 b27 b36 b46 b49[0] b49[1] b55 b35[1][1][0] b20000+35[1][1][1][0] b35[1][1][1][1] am2 a54"/>
        <stop busStop="busStop#b3" duration="20"/>
        <stop busStop="busStop#b5" duration="20"/>
        <stop busStop="busStop#b8" duration="20"/>
        <stop busStop="busStop#b10" duration="20"/>
        <stop busStop="busStop#b12" duration="20"/>
        <stop busStop="busStop#b26" duration="20"/>
    </vehicle>
    <vehicle id="bus_8_50" depart="50" departPos="0" departLane="best" arrivalPos="-1" type="bus" color="0,1,0"><route edges="b6 b100 b7 b9 b11[0] b11[1][1] b101 b35[0] b35[1][0] b35[1][1][0] b20000+35[1][1][1][0] b35[1][1][1][1] am2 a54"/>
        <stop busStop="busStop#b22" duration="20"/>
        <stop busStop="busStop#b21" duration="20"/>
        <stop busStop="busStop#b26" duration="20"/>
    </vehicle>
    <vehicle id="bus_6_60" depart="60" departPos="0" departLane="best" arrivalPos="-1" type="bus" color="0,1,0"><route edges="a55 a55b a125 b12 b50[0] b50[1] b50[1]a b47 b37 b26 b18 b20+19b b2[1][1][1]b"/>
        <stop busStop="busStop#b13" duration="20"/>
        <stop busStop="busStop#b11" duration="20"/>
        <stop busStop="busStop#b9" duration="20"/>
        <stop busStop="busStop#b4" duration="20"/>
        <stop busStop="busStop#b1" duration="20"/>
    </vehicle>
    <vehicle id="bus_10_90" depart="90" departPos="0" departLane="best" arrivalPos="-1" type="bus" color="0,1,0"><route edges="a55 a55b a125 b12 b56[0] b56[1][0] b56[1][1] bm66a bm66b b5[1][1][1] b8 b3[1] b3[1]b"/>
        <stop busStop="busStop#b15" duration="20"/>
        <stop busStop="busStop#b17" duration="20"/>
        <stop busStop="busStop#b19" duration="20"/>
        <stop busStop="busStop#b23" duration="20"/>
        <stop busStop="busStop#b24" duration="20"/>
    </vehicle>
    <vehicle id="bus_7_100" depart="100" departPos="0" departLane="best" arrivalPos="-1" type="bus" color="0,1,0"><route edges="a55 a55b a125 b12 b56[0] b56[1][0] b56[1][1] b5[1][0]+66 b5[1][1][1] b8 b10"/>
        <stop busStop="busStop#b15" duration="20"/>
        <stop busStop="busStop#b17" duration="20"/>
        <stop busStop="busStop#b20" duration="20"/>
        <stop busStop="busStop#b23" duration="20"/>
    </vehicle>
    <vehicle id="bus_140_120" depart="120" departPos="0" departLane="best" arrivalPos="-1" type="bus" color="0,1,0"><route edges="a133 a31 a115 a110 a185 a92 a90 am91 a88 a187 a190 a77[0] a53[1][0] a53[1][1][0] a77[1][0] a77[1][1]"/>
        <stop busStop="busStop#a22" duration="20"/>
        <stop busStop="busStop#a9" duration="20"/>
        <stop busStop="busStop#a6" duration="20"/>
        <stop busStop="busStop#a3" duration="20"/>
        <stop busStop="busStop#a2" duration="20"/>
    </vehicle>
    <vehicle id="bus_21_180" depart="180" departPos="0" departLane="best" arrivalPos="-1" type="bus" color="0,1,0"><route edges="a78[0] a56a a56b a77bc a77cd a53cd a53[0] a78[1][1] a189[0] a189[1][0]+20000 a189[1][1] a188 a87[0] a20001+87[1][0] a87[1][1] am90 a89[0] a20002+89[1][0] a89[1][1] a91 a186 a109[0] a109[1][0]+20003 a109[1][1] a116 a46 a134 a134b"/>
        <stop busStop="busStop#a31" duration="20"/>
        <stop busStop="busStop#a32" duration="20"/>
        <stop busStop="busStop#a33" duration="20"/>
        <stop busStop="busStop#a34" duration="20"/>
        <stop busStop="busStop#a21" duration="20"/>
    </vehicle>
    <vehicle id="bus_1_240" depart="240" departPos="0" departLane="best" arrivalPos="-1" type="bus" color="0,1,0"><route edges="a55 a55b a125 b12 b56[0] b56[1][0] b56[1][1] b5[1][0]+66 b5[1][1][1] b8 b10"/>
        <stop busStop="busStop#b15" duration="20"/>
        <stop busStop="busStop#b17" duration="20"/>
        <stop busStop="busStop#b20" duration="20"/>
        <stop busStop="busStop#b23" duration="20"/>
    </vehicle>
    <vehicle id="bus_2_240" depart="240" departPos="0" departLane="best" arrivalPos="-1" type="bus" color="0,1,0"><route edges="b6 b100 b7 b9 b11[0] b11[1][1] b101 b35[0] b35[1][0] b35[1][1][0] b20000+35[1][1][1][0] b35[1][1][1][1] am2 a54"/>
        <stop busStop="busStop#b22" duration="20"/>
        <stop busStop="busStop#b21" duration="20"/>
        <stop busStop="busStop#b16" duration="20"/>
        <stop busStop="busStop#b26" duration="20"/>
    </vehicle>
    <vehicle id="bus_14_240" depart="240" departPos="0" departLane="best" arrivalPos="-1" type="bus" color="0,1,0"><route edges="a78[0] a56a a56b a77bc a77cd a53cd a53[0] a78[1][1] a189[0] a189[1][0]+20000 a189[1][1] a188 a87[0] a20001+87[1][0] a87[1][1] am90 a89[0] a20002+89[1][0] a89[1][1] a91 a186 a109[0] a109[1][0]+20003 a109[1][1] a116 a46 a134 a134b"/>
        <stop busStop="busStop#a31" duration="20"/>
        <stop busStop="busStop#a32" duration="20"/>
        <stop busStop="busStop#a33" duration="20"/>
        <stop busStop="busStop#a34" duration="20"/>
        <stop busStop="busStop#a21" duration="20"/>
    </vehicle>
    <vehicle id="bus_3_300" depart="300" departPos="0" departLane="best" arrivalPos="-1" type="bus" color="0,1,0"><route edges="b13[0] b14 b17[0] b17[1] b11[0] b11[1][1] b101 b35[0] b35[1][0] b35[1][1][0] b20000+35[1][1][1][0] b35[1][1][1][1] am2 a54"/>
        <stop busStop="busStop#b3" duration="20"/>
        <stop busStop="busStop#b6" duration="20"/>
        <stop busStop="busStop#b21" duration="20"/>
        <stop busStop="busStop#b16" duration="20"/>
        <stop busStop="busStop#b26" duration="20"/>
    </vehicle>
    <vehicle id="bus_4_320" depart="320" departPos="0" departLane="best" arrivalPos="-1" type="bus" color="0,1,0"><route edges="a55 a55b a125 b12 b56[0] b56[1][0] b56[1][1] b5[1][0]+66 b5[1][1][1] b16[0] b16[1] b18 b20+19b b2[1][1][1]b"/>
        <stop busStop="busStop#b15" duration="20"/>
        <stop busStop="busStop#b17" duration="20"/>
        <stop busStop="busStop#b18" duration="20"/>
        <stop busStop="busStop#b20" duration="20"/>
        <stop busStop="busStop#b7" duration="20"/>
        <stop busStop="busStop#b1" duration="20"/>
    </vehicle>
    <vehicle id="bus_8_350" depart="350" departPos="0" departLane="best" arrivalPos="-1" type="bus" color="0,1,0"><route edges="b6 b100 b7 b9 b11[0] b11[1][1] b101 b35[0] b35[1][0] b35[1][1][0] b20000+35[1][1][1][0] b35[1][1][1][1] am2 a54"/>
        <stop busStop="busStop#b22" duration="20"/>
        <stop busStop="busStop#b21" duration="20"/>
        <stop busStop="busStop#b26" duration="20"/>
    </vehicle>
    <vehicle id="bus_140_360" depart="360" departPos="0" departLane="best" arrivalPos="-1" type="bus" color="0,1,0"><route edges="a133 a31 a115 a110 a185 a92 a90 am91 a88 a187 a190 a77[0] a53[1][0] a53[1][1][0] a77[1][0] a77[1][1]"/>
        <stop busStop="busStop#a22" duration="20"/>
        <stop busStop="busStop#a9" duration="20"/>
        <stop busStop="busStop#a6" duration="20"/>
        <stop busStop="busStop#a3" duration="20"/>
        <stop busStop="busStop#a2" duration="20"/>
    </vehicle>
    <vehicle id="bus_7_400" depart="400" departPos="0" departLane="best" arrivalPos="-1" type="bus" color="0,1,0"><route edges="a55 a55b a125 b12 b56[0] b56[1][0] b56[1][1] b5[1][0]+66 b5[1][1][1] b8 b10"/>
        <stop busStop="busStop#b15" duration="20"/>
        <stop busStop="busStop#b17" duration="20"/>
        <stop busStop="busStop#b20" duration="20"/>
        <stop busStop="busStop#b23" duration="20"/>
    </vehicle>
    <vehicle id="bus_1_480" depart="480" departPos="0" departLane="best" arrivalPos="-1" type="bus" color="0,1,0"><route edges="a55 a55b a125 b12 b56[0] b56[1][0] b56[1][1] b5[1][0]+66 b5[1][1][1] b8 b10"/>
        <stop busStop="busStop#b15" duration="20"/>
        <stop busStop="busStop#b17" duration="20"/>
        <stop busStop="busStop#b20" duration="20"/>
        <stop busStop="busStop#b23" duration="20"/>
    </vehicle>
    <vehicle id="bus_2_480" depart="480" departPos="0" departLane="best" arrivalPos="-1" type="bus" color="0,1,0"><route edges="b6 b100 b7 b9 b11[0] b11[1][1] b101 b35[0] b35[1][0] b35[1][1][0] b20000+35[1][1][1][0] b35[1][1][1][1] am2 a54"/>
        <stop busStop="busStop#b22" duration="20"/>
        <stop busStop="busStop#b21" duration="20"/>
        <stop busStop="busStop#b16" duration="20"/>
        <stop busStop="busStop#b26" duration="20"/>
    </vehicle>
    <vehicle id="bus_14_480" depart="480" departPos="0" departLane="best" arrivalPos="-1" type="bus" color="0,1,0"><route edges="a78[0] a56a a56b a77bc a77cd a53cd a53[0] a78[1][1] a189[0] a189[1][0]+20000 a189[1][1] a188 a87[0] a20001+87[1][0] a87[1][1] am90 a89[0] a20002+89[1][0] a89[1][1] a91 a186 a109[0] a109[1][0]+20003 a109[1][1] a116 a46 a134 a134b"/>
        <stop busStop="busStop#a31" duration="20"/>
        <stop busStop="busStop#a32" duration="20"/>
        <stop busStop="busStop#a33" duration="20"/>
        <stop busStop="busStop#a34" duration="20"/>
        <stop busStop="busStop#a21" duration="20"/>
    </vehicle>
    <vehicle id="bus_11_600" depart="600" departPos="0" departLane="best" arrivalPos="-1" type="bus" color="0,1,0"><route edges="b52 b51 b56[0] b56[1][0] b56[1][1] bm66a bm66b b5[1][1][1] b8 b4[1][1][1]"/>
        <stop busStop="busStop#b15" duration="20"/>
        <stop busStop="busStop#b17" duration="20"/>
        <stop busStop="busStop#b19" duration="20"/>
        <stop busStop="busStop#b23" duration="20"/>
    </vehicle>
    <vehicle id="bus_12_600" depart="600" departPos="0" departLane="best" arrivalPos="-1" type="bus" color="0,1,0"><route edges="b3[0] b9 b11[0] b11[1][1] b101 b35[0] b35[1][0] b35[1][1][0] b20000+35[1][1][1][0] b35[1][1][1][1] am2 a54"/>
        <stop busStop="busStop#b22" duration="20"/>
        <stop busStop="busStop#b21" duration="20"/>
        <stop busStop="busStop#b16" duration="20"/>
        <stop busStop="busStop#b26" duration="20"/>
    </vehicle>
    <vehicle id="bus_3_600" depart="600" departPos="0" departLane="best" arrivalPos="-1" type="bus" color="0,1,0"><route edges="b13[0] b14 b17[0] b17[1] b11[0] b11[1][1] b101 b35[0] b35[1][0] b35[1][1][0] b20000+35[1][1][1][0] b35[1][1][1][1] am2 a54"/>
        <stop busStop="busStop#b3" duration="20"/>
        <stop busStop="busStop#b6" duration="20"/>
        <stop busStop="busStop#b21" duration="20"/>
        <stop busStop="busStop#b16" duration="20"/>
        <stop busStop="busStop#b26" duration="20"/>
    </vehicle>
    <vehicle id="bus_140_600" depart="600" departPos="0" departLane="best" arrivalPos="-1" type="bus" color="0,1,0"><route edges="a133 a31 a115 a110 a185 a92 a90 am91 a88 a187 a190 a77[0] a53[1][0] a53[1][1][0] a77[1][0] a77[1][1]"/>
        <stop busStop="busStop#a22" duration="20"/>
        <stop busStop="busStop#a9" duration="20"/>
        <stop busStop="busStop#a6" duration="20"/>
        <stop busStop="busStop#a3" duration="20"/>
        <stop busStop="busStop#a2" duration="20"/>
    </vehicle>
    <vehicle id="bus_210_600" depart="600" departPos="0" departLane="best" arrivalPos="-1" type="bus" color="0,1,0"><route edges="a133 a31 a115 a110 a185 a92 a90 am91 a88 a187 a190 a77[0] a53[1][0] a53[1][1][0] a77[1][0] a77[1][1]"/>
        <stop busStop="busStop#a22" duration="20"/>
        <stop busStop="busStop#a9" duration="20"/>
        <stop busStop="busStop#a6" duration="20"/>
        <stop busStop="busStop#a3" duration="20"/>
        <stop busStop="busStop#a2" duration="20"/>
    </vehicle>
    <vehicle id="bus_32_600" depart="600" departPos="0" departLane="best" arrivalPos="-1" type="bus" color="0,1,0"><route edges="a210 a43[0] a43[1] a201 a201c a204a[0] a204b[0] a204[1][0] a204[1][1]"/>
        <stop busStop="busStop#a27" duration="20"/>
        <stop busStop="busStop#a28" duration="20"/>
    </vehicle>
    <vehicle id="bus_33_600" depart="600" departPos="0" departLane="best" arrivalPos="-1" type="bus" color="0,1,0"><route edges="a203[0] a203[1] a203[1]b a202 a34 a113 a209"/>
        <stop busStop="busStop#a23" duration="20"/>
        <stop busStop="busStop#a24" duration="20"/>
        <stop busStop="busStop#a25" duration="20"/>
        <stop busStop="busStop#a26" duration="20"/>
    </vehicle>
    <vehicle id="bus_4_620" depart="620" departPos="0" departLane="best" arrivalPos="-1" type="bus" color="0,1,0"><route edges="a55 a55b a125 b12 b56[0] b56[1][0] b56[1][1] b5[1][0]+66 b5[1][1][1] b16[0] b16[1] b18 b20+19b b2[1][1][1]b"/>
        <stop busStop="busStop#b15" duration="20"/>
        <stop busStop="busStop#b17" duration="20"/>
        <stop busStop="busStop#b18" duration="20"/>
        <stop busStop="busStop#b20" duration="20"/>
        <stop busStop="busStop#b7" duration="20"/>
        <stop busStop="busStop#b1" duration="20"/>
    </vehicle>
    <vehicle id="bus_8_650" depart="650" departPos="0" departLane="best" arrivalPos="-1" type="bus" color="0,1,0"><route edges="b6 b100 b7 b9 b11[0] b11[1][1] b101 b35[0] b35[1][0] b35[1][1][0] b20000+35[1][1][1][0] b35[1][1][1][1] am2 a54"/>
        <stop busStop="busStop#b22" duration="20"/>
        <stop busStop="busStop#b21" duration="20"/>
        <stop busStop="busStop#b26" duration="20"/>
    </vehicle>
    <vehicle id="bus_7_700" depart="700" departPos="0" departLane="best" arrivalPos="-1" type="bus" color="0,1,0"><route edges="a55 a55b a125 b12 b56[0] b56[1][0] b56[1][1] b5[1][0]+66 b5[1][1][1] b8 b10"/>
        <stop busStop="busStop#b15" duration="20"/>
        <stop busStop="busStop#b17" duration="20"/>
        <stop busStop="busStop#b20" duration="20"/>
        <stop busStop="busStop#b23" duration="20"/>
    </vehicle>
    <vehicle id="bus_1_720" depart="720" departPos="0" departLane="best" arrivalPos="-1" type="bus" color="0,1,0"><route edges="a55 a55b a125 b12 b56[0] b56[1][0] b56[1][1] b5[1][0]+66 b5[1][1][1] b8 b10"/>
        <stop busStop="busStop#b15" duration="20"/>
        <stop busStop="busStop#b17" duration="20"/>
        <stop busStop="busStop#b20" duration="20"/>
        <stop busStop="busStop#b23" duration="20"/>
    </vehicle>
    <vehicle id="bus_2_720" depart="720" departPos="0" departLane="best" arrivalPos="-1" type="bus" color="0,1,0"><route edges="b6 b100 b7 b9 b11[0] b11[1][1] b101 b35[0] b35[1][0] b35[1][1][0] b20000+35[1][1][1][0] b35[1][1][1][1] am2 a54"/>
        <stop busStop="busStop#b22" duration="20"/>
        <stop busStop="busStop#b21" duration="20"/>
        <stop busStop="busStop#b16" duration="20"/>
        <stop busStop="busStop#b26" duration="20"/>
    </vehicle>
    <vehicle id="bus_14_720" depart="720" departPos="0" departLane="best" arrivalPos="-1" type="bus" color="0,1,0"><route edges="a78[0] a56a a56b a77bc a77cd a53cd a53[0] a78[1][1] a189[0] a189[1][0]+20000 a189[1][1] a188 a87[0] a20001+87[1][0] a87[1][1] am90 a89[0] a20002+89[1][0] a89[1][1] a91 a186 a109[0] a109[1][0]+20003 a109[1][1] a116 a46 a134 a134b"/>
        <stop busStop="busStop#a31" duration="20"/>
        <stop busStop="busStop#a32" duration="20"/>
        <stop busStop="busStop#a33" duration="20"/>
        <stop busStop="busStop#a34" duration="20"/>
        <stop busStop="busStop#a21" duration="20"/>
    </vehicle>
    <vehicle id="bus_21_720" depart="720" departPos="0" departLane="best" arrivalPos="-1" type="bus" color="0,1,0"><route edges="a78[0] a56a a56b a77bc a77cd a53cd a53[0] a78[1][1] a189[0] a189[1][0]+20000 a189[1][1] a188 a87[0] a20001+87[1][0] a87[1][1] am90 a89[0] a20002+89[1][0] a89[1][1] a91 a186 a109[0] a109[1][0]+20003 a109[1][1] a116 a46 a134 a134b"/>
        <stop busStop="busStop#a31" duration="20"/>
        <stop busStop="busStop#a32" duration="20"/>
        <stop busStop="busStop#a33" duration="20"/>
        <stop busStop="busStop#a34" duration="20"/>
        <stop busStop="busStop#a21" duration="20"/>
    </vehicle>
    <vehicle id="bus_89_720" depart="720" departPos="0" departLane="best" arrivalPos="-1" type="bus" color="0,1,0"><route edges="a78[0] a56a a56b a77bc a77cd a53cd a53[0] a78[1][1] a189[0] a189[1][0]+20000 a189[1][1] a188 a87[0] a20001+87[1][0] a87[1][1] am90 a89[0] a20002+89[1][0] a89[1][1] a91 a186 a109[0] a109[1][0]+20003 a109[1][1] a116 a46 a134 a134b"/>
        <stop busStop="busStop#a31" duration="20"/>
        <stop busStop="busStop#a32" duration="20"/>
        <stop busStop="busStop#a21" duration="20"/>
    </vehicle>
    <vehicle id="bus_890_780" depart="780" departPos="0" departLane="best" arrivalPos="-1" type="bus" color="0,1,0"><route edges="a133 a31 a115 a110 a185 a92 a90 am91 a88 a187 a190 a77[0] a53[1][0] a53[1][1][0] a77[1][0] a77[1][1]"/>
        <stop busStop="busStop#a22" duration="20"/>
        <stop busStop="busStop#a9" duration="20"/>
        <stop busStop="busStop#a6" duration="20"/>
        <stop busStop="busStop#a3" duration="20"/>
        <stop busStop="busStop#a2" duration="20"/>
    </vehicle>
    <vehicle id="bus_140_840" depart="840" departPos="0" departLane="best" arrivalPos="-1" type="bus" color="0,1,0"><route edges="a133 a31 a115 a110 a185 a92 a90 am91 a88 a187 a190 a77[0] a53[1][0] a53[1][1][0] a77[1][0] a77[1][1]"/>
        <stop busStop="busStop#a22" duration="20"/>
        <stop busStop="busStop#a9" duration="20"/>
        <stop busStop="busStop#a6" duration="20"/>
        <stop busStop="busStop#a3" duration="20"/>
        <stop busStop="busStop#a2" duration="20"/>
    </vehicle>
    <vehicle id="bus_21_900" depart="900" departPos="0" departLane="best" arrivalPos="-1" type="bus" color="0,1,0"><route edges="a78[0] a56a a56b a77bc a77cd a53cd a53[0] a78[1][1] a189[0] a189[1][0]+20000 a189[1][1] a188 a87[0] a20001+87[1][0] a87[1][1] am90 a89[0] a20002+89[1][0] a89[1][1] a91 a186 a109[0] a109[1][0]+20003 a109[1][1] a116 a46 a134 a134b"/>
        <stop busStop="busStop#a31" duration="20"/>
        <stop busStop="busStop#a32" duration="20"/>
        <stop busStop="busStop#a33" duration="20"/>
        <stop busStop="busStop#a34" duration="20"/>
        <stop busStop="busStop#a21" duration="20"/>
    </vehicle>
    <vehicle id="bus_3_900" depart="900" departPos="0" departLane="best" arrivalPos="-1" type="bus" color="0,1,0"><route edges="b13[0] b14 b17[0] b17[1] b11[0] b11[1][1] b101 b35[0] b35[1][0] b35[1][1][0] b20000+35[1][1][1][0] b35[1][1][1][1] am2 a54"/>
        <stop busStop="busStop#b3" duration="20"/>
        <stop busStop="busStop#b6" duration="20"/>
        <stop busStop="busStop#b21" duration="20"/>
        <stop busStop="busStop#b16" duration="20"/>
        <stop busStop="busStop#b26" duration="20"/>
    </vehicle>
    <vehicle id="bus_9_900" depart="900" departPos="0" departLane="best" arrivalPos="-1" type="bus" color="0,1,0"><route edges="b63[0] b63[1] b4[0] b4[1][1][0] b9 b11[0] b11[1][1] bm66a bm66b b11[1][1] b101 b35[0] b35[1][0] b35[1][1][0] b20000+35[1][1][1][0] b35[1][1][1][1] am2 a54"/>
        <stop busStop="busStop#b25" duration="20"/>
        <stop busStop="busStop#b22" duration="20"/>
        <stop busStop="busStop#b21" duration="20"/>
        <stop busStop="busStop#b19" duration="20"/>
        <stop busStop="busStop#b16" duration="20"/>
        <stop busStop="busStop#b26" duration="20"/>
    </vehicle>
    <vehicle id="bus_4_920" depart="920" departPos="0" departLane="best" arrivalPos="-1" type="bus" color="0,1,0"><route edges="a55 a55b a125 b12 b56[0] b56[1][0] b56[1][1] b5[1][0]+66 b5[1][1][1] b16[0] b16[1] b18 b20+19b b2[1][1][1]b"/>
        <stop busStop="busStop#b15" duration="20"/>
        <stop busStop="busStop#b17" duration="20"/>
        <stop busStop="busStop#b18" duration="20"/>
        <stop busStop="busStop#b20" duration="20"/>
        <stop busStop="busStop#b7" duration="20"/>
        <stop busStop="busStop#b1" duration="20"/>
    </vehicle>
    <vehicle id="bus_5_950" depart="950" departPos="0" departLane="best" arrivalPos="-1" type="bus" color="0,1,0"><route edges="b13[0] b14 b27 b36 b46 b49[0] b49[1] b55 b35[1][1][0] b20000+35[1][1][1][0] b35[1][1][1][1] am2 a54"/>
        <stop busStop="busStop#b3" duration="20"/>
        <stop busStop="busStop#b5" duration="20"/>
        <stop busStop="busStop#b8" duration="20"/>
        <stop busStop="busStop#b10" duration="20"/>
        <stop busStop="busStop#b12" duration="20"/>
        <stop busStop="busStop#b26" duration="20"/>
    </vehicle>
    <vehicle id="bus_8_950" depart="950" departPos="0" departLane="best" arrivalPos="-1" type="bus" color="0,1,0"><route edges="b6 b100 b7 b9 b11[0] b11[1][1] b101 b35[0] b35[1][0] b35[1][1][0] b20000+35[1][1][1][0] b35[1][1][1][1] am2 a54"/>
        <stop busStop="busStop#b22" duration="20"/>
        <stop busStop="busStop#b21" duration="20"/>
        <stop busStop="busStop#b26" duration="20"/>
    </vehicle>
    <vehicle id="bus_1_960" depart="960" departPos="0" departLane="best" arrivalPos="-1" type="bus" color="0,1,0"><route edges="a55 a55b a125 b12 b56[0] b56[1][0] b56[1][1] b5[1][0]+66 b5[1][1][1] b8 b10"/>
        <stop busStop="busStop#b15" duration="20"/>
        <stop busStop="busStop#b17" duration="20"/>
        <stop busStop="busStop#b20" duration="20"/>
        <stop busStop="busStop#b23" duration="20"/>
    </vehicle>
    <vehicle id="bus_2_960" depart="960" departPos="0" departLane="best" arrivalPos="-1" type="bus" color="0,1,0"><route edges="b6 b100 b7 b9 b11[0] b11[1][1] b101 b35[0] b35[1][0] b35[1][1][0] b20000+35[1][1][1][0] b35[1][1][1][1] am2 a54"/>
        <stop busStop="busStop#b22" duration="20"/>
        <stop busStop="busStop#b21" duration="20"/>
        <stop busStop="busStop#b16" duration="20"/>
        <stop busStop="busStop#b26" duration="20"/>
    </vehicle>
    <vehicle id="bus_6_960" depart="960" departPos="0" departLane="best" arrivalPos="-1" type="bus" color="0,1,0"><route edges="a55 a55b a125 b12 b50[0] b50[1] b50[1]a b47 b37 b26 b18 b20+19b b2[1][1][1]b"/>
        <stop busStop="busStop#b13" duration="20"/>
        <stop busStop="busStop#b11" duration="20"/>
        <stop busStop="busStop#b9" duration="20"/>
        <stop busStop="busStop#b4" duration="20"/>
        <stop busStop="busStop#b1" duration="20"/>
    </vehicle>
    <vehicle id="bus_14_960" depart="960" departPos="0" departLane="best" arrivalPos="-1" type="bus" color="0,1,0"><route edges="a78[0] a56a a56b a77bc a77cd a53cd a53[0] a78[1][1] a189[0] a189[1][0]+20000 a189[1][1] a188 a87[0] a20001+87[1][0] a87[1][1] am90 a89[0] a20002+89[1][0] a89[1][1] a91 a186 a109[0] a109[1][0]+20003 a109[1][1] a116 a46 a134 a134b"/>
        <stop busStop="busStop#a31" duration="20"/>
        <stop busStop="busStop#a32" duration="20"/>
        <stop busStop="busStop#a33" duration="20"/>
        <stop busStop="busStop#a34" duration="20"/>
        <stop busStop="busStop#a21" duration="20"/>
    </vehicle>
    <vehicle id="bus_10_990" depart="990" departPos="0" departLane="best" arrivalPos="-1" type="bus" color="0,1,0"><route edges="a55 a55b a125 b12 b56[0] b56[1][0] b56[1][1] bm66a bm66b b5[1][1][1] b8 b3[1] b3[1]b"/>
        <stop busStop="busStop#b15" duration="20"/>
        <stop busStop="busStop#b17" duration="20"/>
        <stop busStop="busStop#b19" duration="20"/>
        <stop busStop="busStop#b23" duration="20"/>
        <stop busStop="busStop#b24" duration="20"/>
    </vehicle>
    <vehicle id="bus_7_1000" depart="1000" departPos="0" departLane="best" arrivalPos="-1" type="bus" color="0,1,0"><route edges="a55 a55b a125 b12 b56[0] b56[1][0] b56[1][1] b5[1][0]+66 b5[1][1][1] b8 b10"/>
        <stop busStop="busStop#b15" duration="20"/>
        <stop busStop="busStop#b17" duration="20"/>
        <stop busStop="busStop#b20" duration="20"/>
        <stop busStop="busStop#b23" duration="20"/>
    </vehicle>
    <vehicle id="bus_140_1080" depart="1080" departPos="0" departLane="best" arrivalPos="-1" type="bus" color="0,1,0"><route edges="a133 a31 a115 a110 a185 a92 a90 am91 a88 a187 a190 a77[0] a53[1][0] a53[1][1][0] a77[1][0] a77[1][1]"/>
        <stop busStop="busStop#a22" duration="20"/>
        <stop busStop="busStop#a9" duration="20"/>
        <stop busStop="busStop#a6" duration="20"/>
        <stop busStop="busStop#a3" duration="20"/>
        <stop busStop="busStop#a2" duration="20"/>
    </vehicle>
    <vehicle id="bus_14_1200" depart="1200" departPos="0" departLane="best" arrivalPos="-1" type="bus" color="0,1,0"><route edges="a78[0] a56a a56b a77bc a77cd a53cd a53[0] a78[1][1] a189[0] a189[1][0]+20000 a189[1][1] a188 a87[0] a20001+87[1][0] a87[1][1] am90 a89[0] a20002+89[1][0] a89[1][1] a91 a186 a109[0] a109[1][0]+20003 a109[1][1] a116 a46 a134 a134b"/>
        <stop busStop="busStop#a31" duration="20"/>
        <stop busStop="busStop#a32" duration="20"/>
        <stop busStop="busStop#a33" duration="20"/>
        <stop busStop="busStop#a34" duration="20"/>
        <stop busStop="busStop#a21" duration="20"/>
    </vehicle>
    <vehicle id="bus_32_1200" depart="1200" departPos="0" departLane="best" arrivalPos="-1" type="bus" color="0,1,0"><route edges="a210 a43[0] a43[1] a201 a201c a204a[0] a204b[0] a204[1][0] a204[1][1]"/>
        <stop busStop="busStop#a27" duration="20"/>
        <stop busStop="busStop#a28" duration="20"/>
    </vehicle>
    <vehicle id="bus_33_1200" depart="1200" departPos="0" departLane="best" arrivalPos="-1" type="bus" color="0,1,0"><route edges="a203[0] a203[1] a203[1]b a202 a34 a113 a209"/>
        <stop busStop="busStop#a23" duration="20"/>
        <stop busStop="busStop#a24" duration="20"/>
        <stop busStop="busStop#a25" duration="20"/>
        <stop busStop="busStop#a26" duration="20"/>
    </vehicle>
    <vehicle id="bus_11_1200" depart="1200" departPos="0" departLane="best" arrivalPos="-1" type="bus" color="0,1,0"><route edges="b52 b51 b56[0] b56[1][0] b56[1][1] bm66a bm66b b5[1][1][1] b8 b4[1][1][1]"/>
        <stop busStop="busStop#b15" duration="20"/>
        <stop busStop="busStop#b17" duration="20"/>
        <stop busStop="busStop#b19" duration="20"/>
        <stop busStop="busStop#b23" duration="20"/>
    </vehicle>