<?xml version="1.0" encoding="UTF-8"?>

<!-- generated on 04/08/14 13:51:45 by SUMO netconvert Version dev-SVN-rUNKNOWN
<?xml version="1.0" encoding="UTF-8"?>

<configuration xmlns:xsi="http://www.w3.org/2001/XMLSchema-instance" xsi:noNamespaceSchemaLocation="https://sumo-sim.org/xsd/netconvertConfiguration.xsd">

    <input>
        <node-files value="input_nodes.nod.xml,input_nodes2.nod.xml"/>
        <edge-files value="input_edges.edg.xml,input_edges2.edg.xml"/>
        <connection-files value="input_connections.con.xml,input_connections2.con.xml"/>
    </input>

    <output>
        <output-file value="joined_buslanes.net.xml"/>
    </output>

    <processing>
        <roundabouts.guess value="true"/>
        <check-lane-foes.all value="true"/>
    </processing>

    <report>
        <verbose value="true"/>
    </report>

</configuration>
-->

<net version="0.13" xmlns:xsi="http://www.w3.org/2001/XMLSchema-instance" xsi:noNamespaceSchemaLocation="https://sumo-sim.org/xsd/net_file.xsd">

    <location netOffset="346.83,0.00" convBoundary="0.00,0.00,2164.41,2123.22" origBoundary="-346.83,0.00,1817.58,2148.55" projParameter="!"/>

    <edge id=":a0_0" function="internal">
        <lane id=":a0_0_0" index="0" speed="13.89" length="9.87" shape="1752.84,1020.04 1761.68,1018.11"/>
        <lane id=":a0_0_1" index="1" speed="13.89" length="9.87" shape="1752.92,1023.34 1756.03,1022.85 1758.13,1021.95 1760.21,1021.26 1763.26,1021.39"/>
    </edge>
    <edge id=":a0_2" function="internal">
        <lane id=":a0_2_0" index="0" speed="13.89" length="10.44" shape="1752.92,1023.34 1756.16,1023.35 1758.38,1023.59 1760.56,1024.14 1763.68,1025.07"/>
        <lane id=":a0_2_1" index="1" speed="13.89" length="10.44" shape="1753.00,1026.64 1762.77,1028.24"/>
    </edge>
    <edge id=":a1_0" function="internal">
        <lane id=":a1_0_0" index="0" speed="13.89" length="9.53" shape="1850.28,1049.71 1848.37,1058.96"/>
        <lane id=":a1_0_1" index="1" speed="13.89" length="9.53" shape="1847.08,1048.88 1845.15,1058.21"/>
        <lane id=":a1_0_2" index="2" speed="13.89" length="9.53" shape="1843.89,1048.05 1841.94,1057.46"/>
    </edge>
    <edge id=":a1_3" function="internal">
        <lane id=":a1_3_0" index="0" speed="13.89" length="3.92" shape="1839.96,1049.99 1843.15,1051.61"/>
        <lane id=":a1_3_1" index="1" speed="13.89" length="3.92" shape="1838.67,1053.03 1841.70,1054.47 1842.46,1054.95"/>
    </edge>
    <edge id=":a1_5" function="internal">
        <lane id=":a1_5_0" index="0" speed="13.89" length="9.67" shape="1843.15,1051.61 1844.07,1052.07 1846.84,1054.26 1848.27,1056.56 1848.37,1058.96"/>
    </edge>
    <edge id=":a1_6" function="internal">
        <lane id=":a1_6_0" index="0" speed="13.89" length="4.45" shape="1842.46,1054.95 1843.79,1055.81 1844.94,1057.06 1845.15,1058.21"/>
    </edge>
    <edge id=":a11_0" function="internal">
        <lane id=":a11_0_0" index="0" speed="13.89" length="3.42" shape="650.01,377.80 652.60,379.97"/>
        <lane id=":a11_0_1" index="1" speed="13.89" length="3.42" shape="650.01,377.80 649.56,381.24"/>
    </edge>
    <edge id=":a12_0" function="internal">
        <lane id=":a12_0_0" index="0" speed="13.89" length="7.85" shape="668.74,443.23 667.53,440.76 666.30,439.00 665.05,437.95 663.78,437.60"/>
    </edge>
    <edge id=":a12_1" function="internal">
        <lane id=":a12_1_0" index="0" speed="13.89" length="9.34" shape="668.74,443.23 667.44,433.98"/>
    </edge>
    <edge id=":a12_2" function="internal">
        <lane id=":a12_2_0" index="0" speed="13.89" length="4.96" shape="671.78,441.93 670.67,437.94 670.86,437.15"/>
    </edge>
    <edge id=":a12_9" function="internal">
        <lane id=":a12_9_0" index="0" speed="13.89" length="8.81" shape="670.86,437.15 671.31,435.28 673.70,433.96 677.85,433.98"/>
    </edge>
    <edge id=":a12_3" function="internal">
        <lane id=":a12_3_0" index="0" speed="13.89" length="5.87" shape="677.40,437.25 675.64,437.24 674.61,437.80 674.34,438.93 674.82,440.64"/>
    </edge>
    <edge id=":a12_4" function="internal">
        <lane id=":a12_4_0" index="0" speed="13.89" length="13.65" shape="677.40,437.25 673.89,437.01 670.61,437.16 667.32,437.44 663.78,437.60"/>
    </edge>
    <edge id=":a12_5" function="internal">
        <lane id=":a12_5_0" index="0" speed="13.89" length="4.66" shape="677.40,437.25 673.37,436.58 672.82,436.44"/>
    </edge>
    <edge id=":a12_10" function="internal">
        <lane id=":a12_10_0" index="0" speed="13.89" length="6.04" shape="672.82,436.44 670.36,435.81 668.39,434.94 667.44,433.98"/>
    </edge>
    <edge id=":a12_6" function="internal">
        <lane id=":a12_6_0" index="0" speed="13.89" length="4.98" shape="673.99,431.22 674.60,432.28 675.45,433.09 676.53,433.66 677.85,433.98"/>
    </edge>
    <edge id=":a12_7" function="internal">
        <lane id=":a12_7_0" index="0" speed="13.89" length="9.01" shape="670.95,432.50 674.82,440.64"/>
    </edge>
    <edge id=":a12_8" function="internal">
        <lane id=":a12_8_0" index="0" speed="13.89" length="6.64" shape="670.95,432.50 671.29,434.72 670.21,436.30 667.90,437.19"/>
    </edge>
    <edge id=":a12_11" function="internal">
        <lane id=":a12_11_0" index="0" speed="13.89" length="4.15" shape="667.90,437.19 667.70,437.27 663.78,437.60"/>
    </edge>
    <edge id=":a13_0" function="internal">
        <lane id=":a13_0_0" index="0" speed="13.89" length="5.55" shape="782.06,451.60 780.44,451.62 779.42,452.16 779.00,453.24 779.19,454.85"/>
    </edge>
    <edge id=":a13_1" function="internal">
        <lane id=":a13_1_0" index="0" speed="13.89" length="9.31" shape="782.06,451.60 772.83,450.37"/>
    </edge>
    <edge id=":a13_2" function="internal">
        <lane id=":a13_2_0" index="0" speed="13.89" length="6.11" shape="782.06,451.60 780.27,450.93 778.68,449.41 777.66,447.69"/>
    </edge>
    <edge id=":a13_4" function="internal">
        <lane id=":a13_4_0" index="0" speed="13.89" length="4.19" shape="777.66,447.69 777.28,447.04 776.07,443.81"/>
    </edge>
    <edge id=":a13_3" function="internal">
        <lane id=":a13_3_0" index="0" speed="13.89" length="9.29" shape="773.28,447.10 782.48,448.33"/>
    </edge>
    <edge id=":a133-begin_0" function="internal">
        <lane id=":a133-begin_0_0" index="0" speed="13.89" length="4.82" shape="2105.86,735.78 2107.26,736.27 2107.87,736.97 2107.67,737.87 2106.68,738.98"/>
    </edge>
    <edge id=":a15_0" function="internal">
        <lane id=":a15_0_0" index="0" speed="13.89" length="6.35" shape="1150.10,1024.73 1149.40,1023.57 1148.48,1022.91 1147.37,1022.74 1146.06,1023.05"/>
        <lane id=":a15_0_1" index="1" speed="13.89" length="6.35" shape="1150.10,1024.73 1148.83,1022.25 1147.52,1020.63 1146.20,1019.87 1144.84,1019.98"/>
    </edge>
    <edge id=":a15_2" function="internal">
        <lane id=":a15_2_0" index="0" speed="13.89" length="20.31" shape="1153.13,1023.41 1150.42,1017.22 1148.35,1012.29 1146.91,1008.16 1146.13,1004.41"/>
    </edge>
    <edge id=":a15_3" function="internal">
        <lane id=":a15_3_0" index="0" speed="13.89" length="10.16" shape="1156.16,1022.09 1154.75,1018.31 1154.27,1015.55 1154.72,1013.83 1156.10,1013.13"/>
    </edge>
    <edge id=":a15_4" function="internal">
        <lane id=":a15_4_0" index="0" speed="13.89" length="7.99" shape="1140.77,1009.65 1143.25,1008.46 1144.97,1007.18 1145.93,1005.83 1146.13,1004.41"/>
    </edge>
    <edge id=":a15_5" function="internal">
        <lane id=":a15_5_0" index="0" speed="13.89" length="14.18" shape="1140.77,1009.65 1144.95,1008.09 1147.92,1007.33 1150.98,1006.96 1155.45,1006.56"/>
        <lane id=":a15_5_1" index="1" speed="13.89" length="14.18" shape="1141.98,1012.72 1145.90,1011.26 1148.70,1010.55 1151.58,1010.22 1155.77,1009.85"/>
        <lane id=":a15_5_2" index="2" speed="13.89" length="14.18" shape="1143.19,1015.79 1146.86,1014.42 1149.48,1013.78 1152.17,1013.47 1156.10,1013.13"/>
    </edge>
    <edge id=":a16_0" function="internal">
        <lane id=":a16_0_0" index="0" speed="13.89" length="4.08" shape="1010.02,1062.11 1007.33,1066.00"/>
        <lane id=":a16_0_1" index="1" speed="13.89" length="4.08" shape="1009.66,1058.83 1007.10,1062.71"/>
        <lane id=":a16_0_2" index="2" speed="13.89" length="4.08" shape="1009.66,1058.83 1006.87,1059.42"/>
    </edge>
    <edge id=":a17_0" function="internal">
        <lane id=":a17_0_0" index="0" speed="13.89" length="3.45" shape="1165.03,1054.45 1162.15,1052.42"/>
        <lane id=":a17_0_1" index="1" speed="13.89" length="3.45" shape="1168.05,1053.10 1165.18,1051.10"/>
        <lane id=":a17_0_2" index="2" speed="13.89" length="3.45" shape="1168.05,1053.10 1168.20,1049.79"/>
    </edge>
    <edge id=":a18_0" function="internal">
        <lane id=":a18_0_0" index="0" speed="13.89" length="7.92" shape="814.36,589.83 813.35,588.11 811.99,586.81 810.28,585.94 808.20,585.49"/>
    </edge>
    <edge id=":a18_1" function="internal">
        <lane id=":a18_1_0" index="0" speed="13.89" length="9.69" shape="814.36,589.83 813.36,586.66 813.51,584.48 814.80,583.29 817.22,583.10"/>
    </edge>
    <edge id=":a18_2" function="internal">
        <lane id=":a18_2_0" index="0" speed="13.89" length="8.74" shape="816.89,586.38 808.20,585.49"/>
    </edge>
    <edge id=":a18_3" function="internal">
        <lane id=":a18_3_0" index="0" speed="13.89" length="7.69" shape="811.37,578.92 812.10,580.56 813.31,581.81 815.02,582.65 817.22,583.10"/>
    </edge>
    <edge id=":a18_4" function="internal">
        <lane id=":a18_4_0" index="0" speed="13.89" length="9.04" shape="811.37,578.92 811.86,581.99 811.50,584.11 810.28,585.28 808.20,585.49"/>
    </edge>
    <edge id=":a18_5" function="internal">
        <lane id=":a18_5_0" index="0" speed="13.89" length="8.72" shape="808.54,582.21 817.22,583.10"/>
    </edge>
    <edge id=":a19_0" function="internal">
        <lane id=":a19_0_0" index="0" speed="13.89" length="10.33" shape="727.66,583.87 724.75,574.55"/>
        <lane id=":a19_0_1" index="1" speed="13.89" length="10.33" shape="727.66,583.87 727.10,580.98 727.73,578.69 728.35,576.34 727.78,573.26"/>
    </edge>
    <edge id=":a19_2" function="internal">
        <lane id=":a19_2_0" index="0" speed="13.89" length="12.43" shape="727.66,583.87 726.39,579.33 727.36,576.27 730.57,574.71 731.50,574.70"/>
    </edge>
    <edge id=":a19_7" function="internal">
        <lane id=":a19_7_0" index="0" speed="13.89" length="4.52" shape="731.50,574.70 736.02,574.65"/>
    </edge>
    <edge id=":a19_3" function="internal">
        <lane id=":a19_3_0" index="0" speed="13.89" length="5.83" shape="735.68,577.93 733.93,577.98 732.93,578.58 732.68,579.71 733.18,581.39"/>
    </edge>
    <edge id=":a19_4" function="internal">
        <lane id=":a19_4_0" index="0" speed="13.89" length="11.71" shape="735.68,577.93 731.27,577.33 727.98,576.57 725.81,575.64 724.75,574.55"/>
    </edge>
    <edge id=":a19_5" function="internal">
        <lane id=":a19_5_0" index="0" speed="13.89" length="6.12" shape="730.82,571.96 731.50,572.97 732.60,573.76 734.10,574.32 736.02,574.65"/>
    </edge>
    <edge id=":a19_6" function="internal">
        <lane id=":a19_6_0" index="0" speed="13.89" length="9.72" shape="730.82,571.96 733.18,581.39"/>
    </edge>
    <edge id=":a1b_0" function="internal">
        <lane id=":a1b_0_0" index="0" speed="13.89" length="13.66" shape="1826.33,1043.09 1830.15,1044.50 1832.57,1045.95 1834.93,1047.55 1838.60,1049.41"/>
        <lane id=":a1b_0_1" index="1" speed="13.89" length="13.66" shape="1825.41,1046.26 1829.12,1047.64 1831.46,1049.07 1833.75,1050.64 1837.31,1052.45"/>
    </edge>
    <edge id=":a1b_2" function="internal">
        <lane id=":a1b_2_0" index="0" speed="13.89" length="12.38" shape="1826.97,1052.99 1827.86,1049.39 1828.60,1046.97 1829.37,1044.55 1830.37,1040.98"/>
        <lane id=":a1b_2_1" index="1" speed="13.89" length="12.38" shape="1830.19,1053.72 1831.08,1050.15 1831.81,1047.74 1832.57,1045.34 1833.56,1041.80"/>
        <lane id=":a1b_2_2" index="2" speed="13.89" length="12.38" shape="1833.41,1054.45 1834.29,1050.91 1835.02,1048.52 1835.78,1046.14 1836.76,1042.63"/>
    </edge>
    <edge id=":a1c_0" function="internal">
        <lane id=":a1c_0_0" index="0" speed="13.89" length="5.19" shape="1855.34,1029.08 1855.22,1030.45 1855.59,1031.54 1856.46,1032.36 1857.83,1032.90"/>
    </edge>
    <edge id=":a1c_1" function="internal">
        <lane id=":a1c_1_0" index="0" speed="13.89" length="8.78" shape="1855.34,1029.08 1853.40,1037.68"/>
        <lane id=":a1c_1_1" index="1" speed="13.89" length="8.78" shape="1852.14,1028.28 1850.20,1036.85"/>
        <lane id=":a1c_1_2" index="2" speed="13.89" length="8.78" shape="1848.94,1027.48 1847.01,1036.02"/>
    </edge>
    <edge id=":a1c_4" function="internal">
        <lane id=":a1c_4_0" index="0" speed="13.89" length="13.58" shape="1844.31,1032.60 1847.85,1032.43 1851.13,1032.26 1854.37,1032.33 1857.83,1032.90"/>
    </edge>
    <edge id=":a2_0" function="internal">
        <lane id=":a2_0_0" index="0" speed="13.89" length="3.44" shape="1782.88,1021.78 1786.13,1020.62"/>
        <lane id=":a2_0_1" index="1" speed="13.89" length="3.44" shape="1782.26,1025.02 1785.53,1023.86"/>
        <lane id=":a2_0_2" index="2" speed="13.89" length="3.44" shape="1782.26,1025.02 1784.93,1027.11"/>
    </edge>
    <edge id=":a204c_0" function="internal">
        <lane id=":a204c_0_0" index="0" speed="13.89" length="13.46" shape="1806.42,1246.85 1807.55,1250.43 1808.75,1252.73 1810.23,1254.92 1812.22,1258.16"/>
        <lane id=":a204c_0_1" index="1" speed="13.89" length="13.46" shape="1806.42,1246.85 1807.11,1250.76 1807.28,1253.54 1807.75,1256.21 1809.34,1259.77"/>
        <lane id=":a204c_0_2" index="2" speed="13.89" length="13.46" shape="1803.22,1247.65 1803.97,1251.81 1804.20,1254.77 1804.75,1257.59 1806.46,1261.37"/>
    </edge>
    <edge id=":a204c_3" function="internal">
        <lane id=":a204c_3_0" index="0" speed="13.89" length="12.31" shape="1803.22,1247.65 1804.02,1251.92 1804.11,1255.57 1803.48,1258.59 1802.14,1261.00"/>
        <lane id=":a204c_3_1" index="1" speed="13.89" length="12.31" shape="1800.02,1248.46 1800.71,1251.95 1800.87,1254.86 1800.49,1257.18 1799.58,1258.93"/>
    </edge>
    <edge id=":a20a_0" function="internal">
        <lane id=":a20a_0_0" index="0" speed="13.89" length="5.41" shape="782.83,747.43 782.61,745.92 782.10,744.69 781.29,743.73 780.18,743.05"/>
    </edge>
    <edge id=":a20a_1" function="internal">
        <lane id=":a20a_1_0" index="0" speed="13.89" length="4.95" shape="782.83,747.43 784.34,741.72"/>
        <lane id=":a20a_1_1" index="1" speed="13.89" length="4.95" shape="786.13,747.28 787.17,743.41"/>
    </edge>
    <edge id=":a20b_0" function="internal">
        <lane id=":a20b_0_0" index="0" speed="13.89" length="7.91" shape="785.13,732.71 787.14,733.35 788.85,733.65 790.27,733.60 791.39,733.21"/>
        <lane id=":a20b_0_1" index="1" speed="13.89" length="7.91" shape="783.96,735.80 786.70,736.63 789.12,736.96 791.24,736.77 793.05,736.06"/>
    </edge>
    <edge id=":a20b_2" function="internal">
        <lane id=":a20b_2_0" index="0" speed="13.89" length="8.18" shape="785.41,739.94 791.39,733.21"/>
        <lane id=":a20b_2_1" index="1" speed="13.89" length="8.18" shape="788.24,741.63 793.05,736.06"/>
    </edge>
    <edge id=":a20c_0" function="internal">
        <lane id=":a20c_0_0" index="0" speed="13.89" length="5.03" shape="794.69,731.30 795.78,730.44 796.32,729.45 796.31,728.32 795.76,727.05"/>
    </edge>
    <edge id=":a20c_1" function="internal">
        <lane id=":a20c_1_0" index="0" speed="13.89" length="3.22" shape="794.69,731.30 797.82,729.71"/>
        <lane id=":a20c_1_1" index="1" speed="13.89" length="3.22" shape="796.34,734.16 798.94,732.82"/>
    </edge>
    <edge id=":a21_0" function="internal">
        <lane id=":a21_0_0" index="0" speed="13.89" length="3.36" shape="766.73,656.05 769.46,657.95"/>
        <lane id=":a21_0_1" index="1" speed="13.89" length="3.36" shape="766.73,656.05 766.50,659.42"/>
    </edge>
    <edge id=":a21m_0" function="internal">
        <lane id=":a21m_0_0" index="0" speed="13.89" length="6.25" shape="783.34,706.83 780.38,701.33"/>
    </edge>
    <edge id=":a21m_1" function="internal">
        <lane id=":a21m_1_0" index="0" speed="13.89" length="5.72" shape="779.01,706.62 779.97,705.14 780.51,703.77 780.65,702.50 780.38,701.33"/>
    </edge>
    <edge id=":a23_0" function="internal">
        <lane id=":a23_0_0" index="0" speed="13.89" length="10.58" shape="873.18,933.78 871.80,930.98 870.15,928.83 868.25,927.33 866.08,926.47"/>
    </edge>
    <edge id=":a23_1" function="internal">
        <lane id=":a23_1_0" index="0" speed="13.89" length="14.20" shape="876.24,932.53 874.35,928.45 872.63,925.54 871.04,923.00 869.55,920.03"/>
    </edge>
    <edge id=":a23_2" function="internal">
        <lane id=":a23_2_0" index="0" speed="13.89" length="14.48" shape="874.30,918.03 876.09,921.18 878.50,923.70 881.51,925.57 885.13,926.80"/>
    </edge>
    <edge id=":a23_3" function="internal">
        <lane id=":a23_3_0" index="0" speed="13.89" length="14.53" shape="874.30,918.03 876.01,920.90 878.06,923.23 880.25,925.96 882.39,930.02"/>
    </edge>
    <edge id=":a23_4" function="internal">
        <lane id=":a23_4_0" index="0" speed="13.89" length="9.82" shape="874.30,918.03 875.64,922.87 874.71,925.89 873.18,926.47"/>
    </edge>
    <edge id=":a23_8" function="internal">
        <lane id=":a23_8_0" index="0" speed="13.89" length="7.25" shape="873.18,926.47 871.53,927.09 866.08,926.47"/>
    </edge>
    <edge id=":a23_5" function="internal">
        <lane id=":a23_5_0" index="0" speed="13.89" length="6.09" shape="866.83,923.26 868.69,923.45 869.77,922.98 870.05,921.84 869.55,920.03"/>
    </edge>
    <edge id=":a23_6" function="internal">
        <lane id=":a23_6_0" index="0" speed="13.89" length="18.64" shape="866.83,923.26 871.06,924.13 875.98,925.03 880.90,925.93 885.13,926.80"/>
    </edge>
    <edge id=":a23_7" function="internal">
        <lane id=":a23_7_0" index="0" speed="13.89" length="15.38" shape="866.83,923.26 871.44,924.65 875.06,926.45 877.69,928.65 879.34,931.26"/>
    </edge>
    <edge id=":a24_0" function="internal">
        <lane id=":a24_0_0" index="0" speed="13.89" length="7.61" shape="1036.39,263.99 1034.05,256.75"/>
    </edge>
    <edge id=":a24_1" function="internal">
        <lane id=":a24_1_0" index="0" speed="13.89" length="6.97" shape="1036.39,263.99 1035.87,261.78 1036.22,260.61 1037.43,260.49 1039.50,261.40"/>
    </edge>
    <edge id=":a25_0" function="internal">
        <lane id=":a25_0_0" index="0" speed="13.89" length="5.06" shape="988.31,299.01 989.60,298.49 990.39,297.68 990.69,296.58 990.48,295.20"/>
    </edge>
    <edge id=":a25_1" function="internal">
        <lane id=":a25_1_0" index="0" speed="13.89" length="5.07" shape="988.31,299.01 989.72,298.85 990.87,299.13 991.76,299.85 992.39,301.02"/>
    </edge>
    <edge id=":a25-begin_0" function="internal">
        <lane id=":a25-begin_0_0" index="0" speed="13.89" length="4.82" shape="526.38,877.32 525.26,876.34 524.96,875.46 525.48,874.70 526.82,874.05"/>
    </edge>
    <edge id=":a26_0" function="internal">
        <lane id=":a26_0_0" index="0" speed="13.89" length="14.60" shape="1952.08,778.97 1949.24,780.75 1947.16,783.54 1944.62,786.39 1940.39,788.33"/>
        <lane id=":a26_0_1" index="1" allow="ignoring bus" speed="13.89" length="14.60" shape="1952.08,778.97 1949.05,780.26 1946.61,781.97 1943.80,783.71 1939.70,785.10"/>
    </edge>
    <edge id=":a26_2" function="internal">
        <lane id=":a26_2_0" index="0" speed="13.89" length="13.10" shape="1936.95,772.21 1940.73,771.46 1943.30,770.93 1945.87,770.34 1949.60,769.39"/>
        <lane id=":a26_2_1" index="1" speed="13.89" length="13.10" shape="1937.64,775.44 1941.46,774.68 1944.06,774.14 1946.65,773.54 1950.42,772.59"/>
        <lane id=":a26_2_2" index="2" speed="13.89" length="13.10" shape="1938.33,778.67 1942.18,777.90 1944.82,777.36 1947.44,776.75 1951.25,775.78"/>
    </edge>
    <edge id=":a26_5" function="internal">
        <lane id=":a26_5_0" index="0" speed="13.89" length="5.63" shape="1943.42,791.39 1943.56,789.74 1943.10,788.68 1942.04,788.21 1940.39,788.33"/>
    </edge>
    <edge id=":a26_6" function="internal">
        <lane id=":a26_6_0" index="0" speed="13.89" length="19.19" shape="1943.42,791.39 1945.38,783.45 1947.20,777.67 1948.88,774.05 1950.42,772.59"/>
        <lane id=":a26_6_1" index="1" speed="13.89" length="19.19" shape="1943.42,791.39 1945.13,785.01 1947.00,780.28 1949.04,777.20 1951.25,775.78"/>
    </edge>
    <edge id=":a26_8" function="internal">
        <lane id=":a26_8_0" index="0" speed="13.89" length="5.15" shape="1943.42,791.39 1944.57,790.30 1945.53,790.06 1946.29,790.68 1946.86,792.17"/>
    </edge>
    <edge id=":a27_0" function="internal">
        <lane id=":a27_0_0" index="0" speed="13.89" length="12.74" shape="1927.72,791.03 1922.90,792.20 1919.38,793.37 1917.13,794.56 1916.17,795.75"/>
    </edge>
    <edge id=":a27_1" function="internal">
        <lane id=":a27_1_0" index="0" allow="ignoring bus" speed="13.89" length="37.53" shape="1927.07,787.79 1915.80,788.22 1904.95,786.18 1895.92,783.70 1890.13,782.83"/>
    </edge>
    <edge id=":a27_2" function="internal">
        <lane id=":a27_2_0" index="0" speed="13.89" length="7.84" shape="1926.41,784.56 1918.61,785.30"/>
    </edge>
    <edge id=":a27_15" function="internal">
        <lane id=":a27_15_0" index="0" speed="13.89" length="27.35" shape="1918.61,785.30 1915.20,785.62 1907.98,783.16 1904.77,777.18 1905.55,767.69"/>
    </edge>
    <edge id=":a27_3" function="internal">
        <lane id=":a27_3_0" index="0" speed="13.89" length="5.65" shape="1921.44,771.62 1921.28,773.28 1921.72,774.35 1922.78,774.84 1924.43,774.74"/>
    </edge>
    <edge id=":a27_4" function="internal">
        <lane id=":a27_4_0" index="0" speed="13.89" length="24.65" shape="1921.44,771.62 1919.86,778.78 1918.92,783.72 1917.93,788.64 1916.17,795.75"/>
        <lane id=":a27_4_1" index="1" speed="13.89" length="24.65" shape="1918.24,770.83 1916.66,777.97 1915.73,782.90 1914.74,787.80 1912.98,794.90"/>
        <lane id=":a27_4_2" index="2" speed="13.89" length="24.65" shape="1915.03,770.04 1913.46,777.16 1912.53,782.07 1911.54,786.97 1909.79,794.05"/>
    </edge>
    <edge id=":a27_7" function="internal">
        <lane id=":a27_7_0" index="0" allow="ignoring bus" speed="13.89" length="10.38" shape="1915.03,770.04 1912.68,774.20 1908.12,777.45"/>
    </edge>
    <edge id=":a27_16" function="internal">
        <lane id=":a27_16_0" index="0" speed="13.89" length="18.85" shape="1908.12,777.45 1907.74,777.72 1900.23,780.60 1890.13,782.83"/>
    </edge>
    <edge id=":a27_8" function="internal">
        <lane id=":a27_8_0" index="0" speed="13.89" length="13.37" shape="1888.47,772.93 1892.65,771.93 1895.82,770.46 1897.99,768.52 1899.14,766.11"/>
    </edge>
    <edge id=":a27_9" function="internal">
        <lane id=":a27_9_0" index="0" speed="13.89" length="36.32" shape="1889.02,776.18 1898.83,775.86 1907.09,777.28 1915.33,778.60 1925.09,777.97"/>
    </edge>
    <edge id=":a27_10" function="internal">
        <lane id=":a27_10_0" index="0" speed="13.89" length="5.73" shape="1889.56,779.44 1895.28,779.04"/>
    </edge>
    <edge id=":a27_17" function="internal">
        <lane id=":a27_17_0" index="0" speed="13.89" length="33.75" shape="1895.28,779.04 1903.36,778.48 1912.39,780.88 1916.66,786.64 1916.17,795.75"/>
    </edge>
    <edge id=":a27_11" function="internal">
        <lane id=":a27_11_0" index="0" speed="13.89" length="24.34" shape="1892.19,789.36 1894.15,782.43 1895.71,777.75 1897.25,773.06 1899.14,766.11"/>
        <lane id=":a27_11_1" index="1" speed="13.89" length="24.34" shape="1895.37,790.21 1897.34,783.26 1898.91,778.57 1900.45,773.87 1902.35,766.90"/>
        <lane id=":a27_11_2" index="2" speed="13.89" length="24.34" shape="1898.56,791.06 1900.53,784.09 1902.10,779.39 1903.65,774.68 1905.55,767.69"/>
    </edge>
    <edge id=":a27_14" function="internal">
        <lane id=":a27_14_0" index="0" speed="13.89" length="6.45" shape="1901.75,791.91 1904.38,786.02"/>
    </edge>
    <edge id=":a27_18" function="internal">
        <lane id=":a27_18_0" index="0" speed="13.89" length="23.56" shape="1904.38,786.02 1904.46,785.85 1909.14,780.97 1915.80,777.26 1924.43,774.74"/>
    </edge>
    <edge id=":a28_0" function="internal">
        <lane id=":a28_0_0" index="0" speed="13.89" length="6.27" shape="1048.23,446.90 1042.16,448.43"/>
    </edge>
    <edge id=":a28_1" function="internal">
        <lane id=":a28_1_0" index="0" speed="13.89" length="5.43" shape="1043.04,441.35 1043.76,442.78 1044.69,443.66 1045.83,443.99 1047.18,443.77"/>
    </edge>
    <edge id=":a28_2" function="internal">
        <lane id=":a28_2_0" index="0" speed="13.89" length="7.92" shape="1043.04,441.35 1043.80,444.06 1043.91,446.15 1043.36,447.60 1042.16,448.43"/>
    </edge>
    <edge id=":a28_3" function="internal">
        <lane id=":a28_3_0" index="0" speed="13.89" length="6.24" shape="1041.12,445.29 1047.18,443.77"/>
    </edge>
    <edge id=":a29_0" function="internal">
        <lane id=":a29_0_0" index="0" speed="13.89" length="3.43" shape="1874.85,863.31 1873.93,859.95"/>
        <lane id=":a29_0_1" index="1" speed="13.89" length="3.43" shape="1878.05,864.10 1877.13,860.77"/>
        <lane id=":a29_0_2" index="2" speed="13.89" length="3.43" shape="1881.26,864.89 1880.32,861.60"/>
        <lane id=":a29_0_3" index="3" speed="13.89" length="3.43" shape="1881.26,864.89 1883.52,862.43"/>
    </edge>
    <edge id=":a3_0" function="internal">
        <lane id=":a3_0_0" index="0" speed="13.89" length="10.22" shape="1829.76,1028.63 1831.24,1028.72 1832.40,1028.36 1833.25,1027.58 1833.79,1026.35"/>
        <lane id=":a3_0_1" index="1" speed="13.89" length="10.22" shape="1829.16,1031.88 1832.00,1032.02 1834.25,1031.29 1835.91,1029.68 1836.98,1027.20"/>
        <lane id=":a3_0_2" index="2" speed="13.89" length="10.22" shape="1828.56,1035.12 1832.77,1035.32 1836.10,1034.21 1838.57,1031.78 1840.17,1028.05"/>
    </edge>
    <edge id=":a3_3" function="internal">
        <lane id=":a3_3_0" index="0" speed="13.89" length="14.39" shape="1828.56,1035.12 1833.00,1035.29 1836.31,1034.39 1839.25,1033.24 1842.56,1032.63"/>
    </edge>
    <edge id=":a3_4" function="internal">
        <lane id=":a3_4_0" index="0" speed="13.89" length="12.77" shape="1830.92,1038.82 1831.82,1035.13 1832.34,1032.58 1832.88,1030.04 1833.79,1026.35"/>
        <lane id=":a3_4_1" index="1" speed="13.89" length="12.77" shape="1834.12,1039.65 1835.01,1035.96 1835.54,1033.42 1836.07,1030.88 1836.98,1027.20"/>
        <lane id=":a3_4_2" index="2" speed="13.89" length="12.77" shape="1837.31,1040.47 1838.20,1036.79 1838.73,1034.26 1839.26,1031.72 1840.17,1028.05"/>
    </edge>
    <edge id=":a30_0" function="internal">
        <lane id=":a30_0_0" index="0" speed="13.89" length="6.80" shape="920.79,468.27 914.01,468.85"/>
    </edge>
    <edge id=":a30_1" function="internal">
        <lane id=":a30_1_0" index="0" speed="13.89" length="4.95" shape="917.65,461.93 917.89,463.26 918.50,464.21 919.47,464.78 920.80,464.97"/>
    </edge>
    <edge id=":a30_2" function="internal">
        <lane id=":a30_2_0" index="0" speed="13.89" length="8.96" shape="917.65,461.93 917.53,465.15 916.88,467.38 915.71,468.61 914.01,468.85"/>
    </edge>
    <edge id=":a30_3" function="internal">
        <lane id=":a30_3_0" index="0" speed="13.89" length="6.39" shape="914.44,465.58 920.80,464.97"/>
    </edge>
    <edge id=":a30_4" function="internal">
        <lane id=":a30_4_0" index="0" speed="13.89" length="5.14" shape="917.09,472.25 916.96,470.92 916.40,469.91 915.42,469.22 914.01,468.85"/>
    </edge>
    <edge id=":a30_5" function="internal">
        <lane id=":a30_5_0" index="0" speed="13.89" length="8.91" shape="917.09,472.25 917.46,469.06 918.21,466.79 919.32,465.42 920.80,464.97"/>
    </edge>
    <edge id=":a31_0" function="internal">
        <lane id=":a31_0_0" index="0" speed="13.89" length="5.04" shape="1097.78,430.22 1096.55,430.81 1095.80,431.66 1095.54,432.78 1095.75,434.15"/>
    </edge>
    <edge id=":a31_1" function="internal">
        <lane id=":a31_1_0" index="0" speed="13.89" length="6.39" shape="1097.78,430.22 1091.70,432.20"/>
    </edge>
    <edge id=":a31_2" function="internal">
        <lane id=":a31_2_0" index="0" speed="13.89" length="5.01" shape="1090.65,429.07 1091.87,428.45 1092.60,427.59 1092.84,426.48 1092.57,425.13"/>
    </edge>
    <edge id=":a31_3" function="internal">
        <lane id=":a31_3_0" index="0" speed="13.89" length="6.47" shape="1090.65,429.07 1096.80,427.07"/>
    </edge>
    <edge id=":a31_4" function="internal">
        <lane id=":a31_4_0" index="0" speed="13.89" length="4.91" shape="1090.65,429.07 1092.18,428.98 1093.54,429.79 1094.56,431.27"/>
    </edge>
    <edge id=":a31_5" function="internal">
        <lane id=":a31_5_0" index="0" speed="13.89" length="3.13" shape="1094.56,431.27 1094.73,431.52 1095.75,434.15"/>
    </edge>
    <edge id=":a32_0" function="internal">
        <lane id=":a32_0_0" index="0" speed="13.89" length="5.00" shape="1142.01,419.64 1141.40,418.41 1140.55,417.66 1139.45,417.40 1138.10,417.61"/>
    </edge>
    <edge id=":a32_1" function="internal">
        <lane id=":a32_1_0" index="0" speed="13.89" length="8.14" shape="1142.01,419.64 1141.34,416.91 1141.34,414.81 1142.01,413.32 1143.35,412.46"/>
    </edge>
    <edge id=":a32_2" function="internal">
        <lane id=":a32_2_0" index="0" speed="13.89" length="6.60" shape="1144.39,415.59 1138.10,417.61"/>
    </edge>
    <edge id=":a32_3" function="internal">
        <lane id=":a32_3_0" index="0" speed="13.89" length="5.03" shape="1139.47,410.43 1140.05,411.69 1140.89,412.44 1141.99,412.70 1143.35,412.46"/>
    </edge>
    <edge id=":a32_4" function="internal">