<edges>
   <edge id="me" from="0" to="ep" numLanes="2" maxSpeed="13.89">
      <lane index="0" allow="pedestrian"/>
      <lane index="1" disallow="pedestrian"/>
   </edge>
   <edge id="em" from="e" to="0" numLanes="3" maxSpeed="13.89">
      <lane index="0" allow="pedestrian"/>
      <lane index="1" disallow="pedestrian"/>
      <lane index="2" disallow="pedestrian"/>
   </edge>
   <edge id="emp" from="ep" to="e" numLanes="2" maxSpeed="13.89">
      <lane index="0" allow="pedestrian"/>
      <lane index="1" disallow="pedestrian"/>
   </edge>
   
   <edge id="mw" from="0" to="wp" numLanes="2" maxSpeed="13.89">
      <lane index="0" allow="pedestrian"/>
      <lane index="1" disallow="pedestrian"/>
   </edge>
   <edge id="wm" from="w" to="0" numLanes="3" maxSpeed="13.89">
      <lane index="0" allow="pedestrian"/>
      <lane index="1" disallow="pedestrian"/>
      <lane index="2" disallow="pedestrian"/>
   </edge>
   <edge id="wmp" from="wp" to="w" numLanes="2" maxSpeed="13.89">
      <lane index="0" allow="pedestrian"/>
      <lane index="1" disallow="pedestrian"/>
   </edge>
   
   <edge id="mn" from="0" to="np" numLanes="2" maxSpeed="13.89">
      <lane index="0" allow="pedestrian"/>
      <lane index="1" disallow="pedestrian"/>
   </edge>
   <edge id="nm" from="n" to="0" numLanes="3" maxSpeed="13.89">
      <lane index="0" allow="pedestrian"/>
      <lane index="1" disallow="pedestrian"/>
      <lane index="2" disallow="pedestrian"/>
   </edge>
   <edge id="nmp" from="np" to="n" numLanes="2" maxSpeed="13.89">
      <lane index="0" allow="pedestrian"/>
      <lane index="1" disallow="pedestrian"/>
   </edge>
   
   <edge id="ms" from="0" to="sp" numLanes="2" maxSpeed="13.89">
      <lane index="0" allow="pedestrian"/>
      <lane index="1" disallow="pedestrian"/>
   </edge>
   <edge id="sm" from="s" to="0" numLanes="3" maxSpeed="13.89">
      <lane index="0" allow="pedestrian"/>
      <lane index="1" disallow="pedestrian"/>
      <lane index="2" disallow="pedestrian"/>
   </edge>
   <edge id="smp" from="sp" to="s" numLanes="2" maxSpeed="13.89">
      <lane index="0" allow="pedestrian"/>
      <lane index="1" disallow="pedestrian"/>
   </edge>
   
</edges>