<?xml version="1.0" encoding="UTF-8"?>

<!-- generated on Tue Jun 13 09:34:00 2017 by SUMO netconvert Version dev-SVN-r24637
<?xml version="1.0" encoding="UTF-8"?>

<configuration xmlns:xsi="http://www.w3.org/2001/XMLSchema-instance" xsi:noNamespaceSchemaLocation="http://sumo.dlr.de/xsd/netconvertConfiguration.xsd">

    <input>
        <node-files value="racing/spreewaldring.nod.xml"/>
        <edge-files value="racing/spreewaldring.edg.xml"/>
        <type-files value="racing/racing.typ.xml"/>
        <osm-files value="racing/spreewaldring.osm"/>
    </input>

    <output>
        <output-file value="racing/spreewaldring.net.xml"/>
    </output>

    <projection>
        <proj.utm value="true"/>
    </projection>

    <edge_removal>
        <keep-edges.by-type value="highway.raceway"/>
    </edge_removal>

    <processing>
        <no-internal-links value="false"/>
        <geometry.remove value="false"/>
        <junctions.scurve-stretch value="0.8"/>
    </processing>

</configuration>
-->

<net version="0.27" xmlns:xsi="http://www.w3.org/2001/XMLSchema-instance" xsi:noNamespaceSchemaLocation="http://sumo.dlr.de/xsd/net_file.xsd">

    <location netOffset="-409583.46,-5761440.67" convBoundary="0.00,0.00,522.14,466.23" origBoundary="13.682992,51.996270,13.691020,52.002149" projParameter="+proj=utm +zone=33 +ellps=WGS84 +datum=WGS84 +units=m +no_defs"/>

    <type id="highway.raceway" priority="14" numLanes="2" speed="27.78" allow="vip" oneway="0" width="9.60"/>

    <edge id=":1774846058_0" function="internal">
        <lane id=":1774846058_0_0" index="0" allow="vip" speed="27.78" length="9.11" width="9.60" shape="458.65,355.55 454.74,353.08"/>
        <lane id=":1774846058_0_1" index="1" allow="vip" speed="27.78" length="9.11" width="9.60" shape="468.76,349.74 461.75,345.84 457.34,342.44"/>
    </edge>
    <edge id=":1774846058_4" function="internal">
        <lane id=":1774846058_4_0" index="0" speed="27.78" length="25.25" width="9.60" shape="454.74,353.08 450.78,350.58 446.04,345.01 444.44,338.87 445.97,332.14"/>
    </edge>
    <edge id=":1774846058_5" function="internal">
        <lane id=":1774846058_5_0" index="0" speed="27.78" length="7.24" width="9.60" shape="457.34,342.44 457.10,342.25 454.79,338.99 454.84,336.05"/>
    </edge>
    <edge id=":1774846058_2" function="internal">
        <lane id=":1774846058_2_0" index="0" allow="vip" speed="27.78" length="17.98" width="9.60" shape="441.18,347.92 442.11,343.10 442.90,339.82 444.03,336.65 445.97,332.14"/>
        <lane id=":1774846058_2_1" index="1" allow="vip" speed="27.78" length="17.98" width="9.60" shape="449.65,354.62 450.52,348.94 451.32,345.07 452.59,341.33 454.84,336.05"/>
    </edge>
    <edge id=":1774846062_0" function="internal">
        <lane id=":1774846062_0_0" index="0" allow="vip" speed="27.78" length="12.33" width="9.60" shape="432.13,345.37 431.14,347.95 430.83,349.98 431.20,351.46 432.27,352.40"/>
        <lane id=":1774846062_0_1" index="1" allow="vip" speed="27.78" length="12.33" width="9.60" shape="432.13,345.37 429.33,351.79 427.73,356.56 427.34,359.69 428.17,361.19"/>
    </edge>
    <edge id=":1774846062_2" function="internal">
        <lane id=":1774846062_2_0" index="0" allow="vip" speed="27.78" length="19.18" width="9.60" shape="432.13,345.37 423.80,362.73"/>
        <lane id=":1774846062_2_1" index="1" allow="vip" speed="27.78" length="19.18" width="9.60" shape="423.36,341.24 415.10,358.45"/>
    </edge>
    <edge id=":1774846067_0" function="internal">
        <lane id=":1774846067_0_0" index="0" allow="vip" speed="27.78" length="15.41" width="9.60" shape="432.45,352.49 435.70,353.49 438.23,353.10 440.04,351.31 441.14,348.12"/>
        <lane id=":1774846067_0_1" index="1" allow="vip" speed="27.78" length="15.41" width="9.60" shape="432.45,352.49 439.66,355.54 444.92,356.94 448.24,356.70 449.62,354.82"/>
    </edge>
    <edge id=":1774846067_2" function="internal">
        <lane id=":1774846067_2_0" index="0" allow="vip" speed="27.78" length="18.27" width="9.60" shape="432.45,352.49 437.85,354.44 441.86,355.31 445.48,356.72 449.67,360.31"/>
        <lane id=":1774846067_2_1" index="1" allow="vip" speed="27.78" length="18.27" width="9.60" shape="428.35,361.28 435.43,364.91 438.91,367.40 438.81,368.75 435.11,368.95"/>
    </edge>
    <edge id=":1774846077_0" function="internal">
        <lane id=":1774846077_0_0" index="0" allow="vip" speed="27.78" length="21.68" width="9.60" shape="428.55,378.24 438.46,388.35"/>
        <lane id=":1774846077_0_1" index="1" allow="vip" speed="27.78" length="21.68" width="9.60" shape="429.63,368.59 418.01,368.49 410.22,369.98 406.26,373.04 406.14,377.70"/>
    </edge>
    <edge id=":1774846077_2" function="internal">
        <lane id=":1774846077_2_0" index="0" allow="vip" speed="27.78" length="38.16" width="9.60" shape="423.71,362.91 416.27,381.51 416.24,391.96 423.64,394.24 438.46,388.35"/>
        <lane id=":1774846077_2_1" index="1" allow="vip" speed="27.78" length="38.16" width="9.60" shape="415.01,358.63 411.32,364.06 407.74,367.97 405.58,371.97 406.14,377.70"/>
    </edge>
    <edge id=":1837645831_0" function="internal">
        <lane id=":1837645831_0_0" index="0" allow="vip" speed="27.78" length="16.85" width="9.60" shape="326.26,289.49 320.99,288.22 317.10,286.16 313.85,284.45 310.50,284.25"/>
    </edge>
    <edge id=":1837645831_1" function="internal">
        <lane id=":1837645831_1_0" index="0" allow="vip" speed="27.78" length="19.65" width="9.60" shape="322.98,269.78 320.03,275.46 316.97,279.77 313.80,282.70 310.50,284.25"/>
    </edge>
    <edge id=":1837645873_0" function="internal">
        <lane id=":1837645873_0_0" index="0" allow="vip" speed="27.78" length="0.30" width="9.60" shape="351.39,338.08 351.52,337.81"/>
    </edge>
    <edge id=":1837645928_0" function="internal">
        <lane id=":1837645928_0_0" index="0" allow="vip" speed="27.78" length="2.22" width="9.60" shape="392.40,225.89 392.35,225.23 392.30,224.78 392.22,224.34 392.09,223.69"/>
    </edge>
    <edge id=":1837645928_1" function="internal">
        <lane id=":1837645928_1_0" index="0" allow="vip" speed="27.78" length="2.26" width="9.60" shape="392.06,225.91 392.20,225.26 392.25,224.80 392.22,224.34 392.09,223.69"/>
    </edge>
    <edge id=":1837646045_0" function="internal">
        <lane id=":1837646045_0_0" index="0" allow="vip" speed="27.78" length="36.68" width="9.60" shape="272.77,392.24 268.43,398.09 261.68,407.31 255.57,416.69 253.14,423.01"/>
    </edge>
    <edge id=":1837646045_1" function="internal">
        <lane id=":1837646045_1_0" index="0" allow="vip" speed="27.78" length="34.53" width="9.60" shape="272.77,392.24 267.89,396.89 259.65,403.37 251.33,409.79 246.21,414.25"/>
    </edge>
    <edge id=":2264540316_0" function="internal">
        <lane id=":2264540316_0_0" index="0" allow="vip" speed="27.78" length="0.30" width="9.60" shape="391.78,257.77 391.92,257.51"/>
    </edge>
    <edge id=":2264540325_0" function="internal">
        <lane id=":2264540325_0_0" index="0" allow="vip" speed="27.78" length="0.10" width="9.60" shape="318.06,405.50 318.06,405.50"/>
    </edge>
    <edge id=":2504813560_0" function="internal">
        <lane id=":2504813560_0_0" index="0" allow="vip" speed="27.78" length="4.99" width="9.60" shape="390.83,217.49 390.46,216.07 390.04,215.15 389.50,214.27 388.77,212.98"/>
    </edge>
    <edge id=":2504813560_1" function="internal">
        <lane id=":2504813560_1_0" index="0" allow="vip" speed="27.78" length="7.58" width="9.60" shape="388.56,220.23 389.36,218.44 389.66,216.64 389.46,214.82 388.77,212.98"/>
    </edge>
    <edge id=":2504813573_0" function="internal">
        <lane id=":2504813573_0_0" index="0" allow="vip" speed="27.78" length="34.33" width="9.60" shape="345.98,325.73 348.98,316.71 348.98,308.55 345.96,301.26 339.92,294.84"/>
        <lane id=":2504813573_0_1" index="1" allow="vip" speed="27.78" length="34.33" width="9.60" shape="345.98,325.73 350.04,315.84 352.26,307.04 352.65,299.32 351.20,292.69"/>
    </edge>
    <edge id=":2504813573_2" function="internal">
        <lane id=":2504813573_2_0" index="0" allow="vip" speed="27.78" length="35.46" width="9.60" shape="345.98,325.73 361.57,293.88"/>
    </edge>
    <edge id=":2504813584_0" function="internal">
        <lane id=":2504813584_0_0" index="0" allow="vip" speed="27.78" length="16.87" width="9.60" shape="313.74,248.60 317.75,248.13 322.06,247.32 326.35,246.36 330.30,245.49"/>
    </edge>
    <edge id=":2504813584_1" function="internal">
        <lane id=":2504813584_1_0" index="0" allow="vip" speed="27.78" length="16.68" width="9.60" shape="313.74,248.60 318.66,248.89 322.29,250.44 324.63,253.23 325.67,257.26"/>
    </edge>

    <edge id="165986117" from="1774846067" to="1774846058" priority="14" type="highway.raceway" spreadType="center" shape="432.17,357.72 438.66,357.34 442.80,355.09 445.85,349.34 447.49,340.71">
        <lane id="165986117_0" index="0" allow="vip" speed="27.78" length="0.20" width="9.60" shape="441.14,348.12 441.18,347.92"/>
        <lane id="165986117_1" index="1" allow="vip" speed="27.78" length="0.20" width="9.60" shape="449.62,354.82 449.65,354.62"/>
    </edge>
    <edge id="165986119#0" from="1774846008" to="1774846062" priority="14" type="highway.raceway" spreadType="center" shape="479.63,243.72 474.86,247.92 472.29,252.11 473.81,257.61 475.22,267.80 474.08,270.65 470.81,275.37 461.95,277.82 458.28,282.09 451.85,292.20 423.00,353.38">
        <lane id="165986119#0_0" index="0" allow="vip" speed="27.78" length="119.39" width="9.60" shape="482.84,247.36 478.61,251.08 477.53,252.85 478.57,256.62 480.20,268.40 478.38,272.96 473.80,279.58 464.66,282.11 462.18,284.98 456.10,294.55 432.13,345.37"/>
        <lane id="165986119#0_1" index="1" allow="vip" speed="27.78" length="119.39" width="9.60" shape="476.42,240.08 471.11,244.76 467.05,251.37 469.05,258.59 470.24,267.19 469.78,268.34 467.83,271.17 459.24,273.54 454.37,279.19 447.59,289.86 423.36,341.24"/>
    </edge>
    <edge id="165986119#1" from="1774846062" to="1774846077" priority="14" type="highway.raceway" spreadType="center">
        <lane id="165986119#1_0" index="0" allow="vip" speed="27.78" length="0.20" width="9.60" shape="423.80,362.73 423.71,362.91"/>
        <lane id="165986119#1_1" index="1" allow="vip" speed="27.78" length="0.20" width="9.60" shape="415.10,358.45 415.01,358.63"/>
    </edge>
    <edge id="165986119#2" from="1774846077" to="1774846058" priority="14" type="highway.raceway" spreadType="center" shape="413.92,371.84 411.20,377.56 413.06,383.21 416.87,388.96 418.54,395.57 414.59,401.86 407.74,406.21 402.03,410.64 401.60,419.99 405.94,424.75 412.03,429.46 415.31,435.54 417.26,442.66 420.25,448.27 428.43,450.77 436.29,451.30 445.00,447.40 450.50,440.44 452.50,432.38 449.74,422.39 442.60,415.38 438.65,411.47 436.05,406.15 435.81,401.57 437.16,396.67 441.33,392.32 452.29,386.43 464.84,380.73 477.55,375.80 481.81,372.58 483.16,369.37 483.19,365.24 481.00,361.65 476.11,358.81 450.10,345.89 447.49,340.71">
        <lane id="165986119#2_0" index="0" allow="vip" speed="27.78" length="170.71" width="9.60" shape="438.46,388.35 450.14,382.08 462.96,376.25 475.16,371.52 477.85,369.49 478.32,368.38 478.33,366.59 477.50,365.23 473.81,363.08 458.65,355.55"/>
        <lane id="165986119#2_1" index="1" allow="vip" speed="27.78" length="170.71" width="9.60" shape="406.14,377.70 408.66,385.34 412.37,390.94 413.33,394.74 411.06,398.35 404.94,402.24 397.29,408.18 396.66,421.78 402.64,428.33 408.25,432.67 410.78,437.36 412.72,444.46 416.92,452.32 427.54,455.57 437.17,456.21 448.07,451.34 454.95,442.62 457.51,432.32 454.07,419.85 446.00,411.92 442.65,408.60 440.84,404.91 440.69,402.11 441.51,399.14 444.30,396.23 454.44,390.77 466.72,385.20 479.93,380.08 485.78,375.66 488.01,370.36 488.04,363.89 484.50,358.08 478.42,354.53 468.76,349.74"/>
    </edge>
    <edge id="165986119#3" from="1774846058" to="2264540309" priority="14" type="highway.raceway" spreadType="center" shape="447.49,340.71 465.60,299.58 467.24,297.05 469.68,295.29 472.67,294.69 475.69,295.47 478.36,297.31 482.50,304.18 493.91,320.26 496.34,322.21 499.43,323.00 502.81,322.22 505.22,319.45 511.81,305.65 512.76,303.19 512.58,300.34 511.80,297.49 509.97,294.37 499.58,279.39 498.12,275.78 498.43,272.49 499.60,270.44 501.52,269.22 507.01,268.78 511.48,270.22 515.03,269.33 518.73,265.23 521.83,258.01 522.14,253.60 519.54,247.14 510.59,234.93 508.26,232.80 505.77,231.77 502.55,231.59 498.66,232.93">
        <lane id="165986119#3_0" index="0" allow="vip" speed="27.78" length="218.85" width="9.60" shape="445.97,332.14 461.32,297.26 463.67,293.66 467.69,290.74 472.80,289.71 477.73,290.99 481.97,293.91 486.56,301.52 497.47,316.90 498.56,317.77 499.50,318.01 500.19,317.85 501.13,316.77 507.36,303.73 507.86,302.43 507.77,301.15 507.29,299.39 505.88,296.98 495.29,281.72 493.18,276.51 493.70,271.00 495.99,266.98 499.94,264.49 507.58,263.87 511.64,265.18 512.42,264.98 514.60,262.58 517.05,256.85 517.23,254.37 515.27,249.52 506.96,238.18 505.62,236.95 504.68,236.56 503.23,236.49 500.23,237.52"/>
        <lane id="165986119#3_1" index="1" allow="vip" speed="27.78" length="218.85" width="9.60" shape="454.84,336.05 469.89,301.89 470.82,300.45 471.67,299.83 472.53,299.66 473.64,299.95 474.74,300.71 478.44,306.84 490.35,323.62 494.13,326.65 499.37,327.99 505.44,326.60 509.31,322.14 516.27,307.57 517.67,303.94 517.39,299.54 516.30,295.58 514.06,291.76 503.87,277.07 503.06,275.06 503.16,273.99 503.21,273.89 503.10,273.96 506.44,273.69 511.31,275.27 517.64,273.67 522.87,267.89 526.61,259.17 527.06,252.83 523.81,244.76 514.21,231.67 510.91,228.65 506.86,226.97 501.86,226.70 497.08,228.34"/>
    </edge>
    <edge id="165986124#0" from="1774846062" to="1774846067" priority="14" type="highway.raceway" spreadType="center">
        <lane id="165986124#0_0" index="0" allow="vip" speed="27.78" length="0.20" width="9.60" shape="432.27,352.40 432.45,352.49"/>
        <lane id="165986124#0_1" index="1" allow="vip" speed="27.78" length="0.20" width="9.60" shape="428.17,361.19 428.35,361.28"/>
    </edge>
    <edge id="165986124#1" from="1774846067" to="1774846077" priority="14" type="highway.raceway" spreadType="center" shape="432.17,357.72 439.28,360.80 445.80,363.27 449.44,367.22 448.25,372.71 444.57,374.44 426.55,373.25 413.92,371.84">
        <lane id="165986124#1_0" index="0" allow="vip" speed="27.78" length="24.09" width="9.60" shape="449.67,360.31 454.72,365.78 452.48,376.09 445.49,379.36 428.55,378.24"/>
        <lane id="165986124#1_1" index="1" allow="vip" speed="27.78" length="24.09" width="9.60" shape="435.11,368.95 429.63,368.59"/>
    </edge>
    <edge id="172927073#0" from="1837645873" to="2264540316" priority="14" type="highway.raceway" spreadType="center">
        <lane id="172927073#0_0" index="0" allow="vip" speed="27.78" length="89.60" width="9.60" shape="351.52,337.81 391.78,257.77"/>
    </edge>
    <edge id="172927073#1" from="2264540316" to="1837645928" priority="14" type="highway.raceway" spreadType="center" shape="391.85,257.64 394.45,252.46 392.32,224.78">
        <lane id="172927073#1_0" index="0" allow="vip" speed="27.78" length="32.30" width="9.60" shape="391.92,257.51 394.45,252.46 392.40,225.89"/>
    </edge>
    <edge id="172927073#2" from="1837645928" to="2504813560" priority="14" type="highway.raceway" spreadType="center">
        <lane id="172927073#2_0" index="0" allow="vip" speed="27.78" length="6.33" width="9.60" shape="392.09,223.69 390.83,217.49"/>
    </edge>
    <edge id="172927073#3" from="2504813560" to="2504813584" priority="14" type="highway.raceway" spreadType="center" shape="390.66,216.66 384.35,204.37 374.34,195.65 360.00,191.49 344.79,192.97 332.04,202.00 322.78,209.29 312.43,214.24 302.49,216.87 292.25,216.99 282.91,214.96 273.90,211.64 263.96,205.83 256.57,198.64 243.89,177.37 226.90,147.64 197.43,106.60 190.59,100.60 182.21,96.48 167.15,91.68 157.99,87.05 150.89,80.01 146.83,71.08 144.96,62.57 143.16,51.61 138.59,36.27 132.89,26.77 125.09,17.20 117.49,10.61 109.67,5.39 101.41,2.36 92.90,0.50 84.70,0.00 76.41,1.07 66.74,5.10 57.96,10.91 45.69,22.66 34.47,36.41 14.85,70.07 8.35,86.45 3.49,103.02 0.69,117.55 0.00,133.90 0.65,144.55 2.71,154.27 12.19,181.75 24.38,211.63 37.75,238.44 53.06,267.03 76.10,306.37 99.66,349.14 118.50,384.71 133.08,408.84 136.19,412.80 140.49,416.29 146.79,418.59 152.94,419.34 159.21,417.72 166.17,414.89 170.05,411.19 173.38,406.92 175.94,400.33 176.85,393.81 175.05,387.02 172.92,382.62 163.32,368.05 143.19,340.71 124.66,313.86 105.18,285.07 79.07,250.63 66.77,233.48 61.06,225.49 57.19,217.55 53.84,208.53 52.09,199.48 47.37,143.99 48.13,134.84 50.68,124.91 54.16,117.06 59.98,109.67 67.11,103.91 74.99,99.76 83.50,96.50 93.61,95.37 103.69,95.60 115.30,98.02 126.98,102.20 151.81,120.40 170.43,134.05 185.84,146.24 211.48,168.81 228.17,189.10 242.98,209.87 249.87,221.06 257.22,230.29 264.35,237.80 274.27,244.64 284.24,248.00 293.98,249.76 316.07,248.46">
        <lane id="172927073#3_0" index="0" allow="vip" speed="27.78" length="1614.39" width="9.60" shape="388.77,212.98 384.35,204.37 374.34,195.65 360.00,191.49 344.79,192.97 332.04,202.00 322.78,209.29 312.43,214.24 302.49,216.87 292.25,216.99 282.91,214.96 273.90,211.64 263.96,205.83 256.57,198.64 243.89,177.37 226.90,147.64 197.43,106.60 190.59,100.60 182.21,96.48 167.15,91.68 157.99,87.05 150.89,80.01 146.83,71.08 144.96,62.57 143.16,51.61 138.59,36.27 132.89,26.77 125.09,17.20 117.49,10.61 109.67,5.39 101.41,2.36 92.90,0.50 84.70,0.00 76.41,1.07 66.74,5.10 57.96,10.91 45.69,22.66 34.47,36.41 14.85,70.07 8.35,86.45 3.49,103.02 0.69,117.55 0.00,133.90 0.65,144.55 2.71,154.27 12.19,181.75 24.38,211.63 37.75,238.44 53.06,267.03 76.10,306.37 99.66,349.14 118.50,384.71 133.08,408.84 136.19,412.80 140.49,416.29 146.79,418.59 152.94,419.34 159.21,417.72 166.17,414.89 170.05,411.19 173.38,406.92 175.94,400.33 176.85,393.81 175.05,387.02 172.92,382.62 163.32,368.05 143.19,340.71 124.66,313.86 105.18,285.07 79.07,250.63 66.77,233.48 61.06,225.49 57.19,217.55 53.84,208.53 52.09,199.48 47.37,143.99 48.13,134.84 50.68,124.91 54.16,117.06 59.98,109.67 67.11,103.91 74.99,99.76 83.50,96.50 93.61,95.37 103.69,95.60 115.30,98.02 126.98,102.20 151.81,120.40 170.43,134.05 185.84,146.24 211.48,168.81 228.17,189.10 242.98,209.87 249.87,221.06 257.22,230.29 264.35,237.80 274.27,244.64 284.24,248.00 293.98,249.76 313.74,248.60"/>
    </edge>
    <edge id="172927073#4" from="2504813584" to="1837645831" priority="14" type="highway.raceway" spreadType="center" shape="316.07,248.46 321.02,249.91 325.32,253.12 325.79,258.64 323.80,267.96 319.23,278.05 313.10,283.58">
        <lane id="172927073#4_0" index="0" allow="vip" speed="27.78" length="12.91" width="9.60" shape="325.67,257.26 325.79,258.64 323.80,267.96 322.98,269.78"/>
    </edge>
    <edge id="172927073#5" from="1837645831" to="1837646045" priority="14" type="highway.raceway" spreadType="center" shape="313.10,283.58 223.35,306.63 216.06,306.84 209.45,305.42 203.30,301.71 197.39,294.57 193.97,288.97 192.78,283.54 192.77,278.28 194.58,274.21 198.99,269.53 204.68,261.86 206.78,257.12 207.21,251.81 205.91,245.10 202.31,239.36 194.52,233.48 182.03,234.07 164.79,238.62 153.55,247.26 148.51,253.95 144.74,263.12 142.84,271.23 141.71,279.17 142.32,288.05 146.05,296.06 154.94,311.40 165.05,325.98 172.91,338.96 178.31,343.24 181.83,346.80 190.31,349.82 198.64,350.37 214.01,346.88 241.60,340.72 249.72,340.30 256.39,341.49 263.15,344.47 268.90,348.90 273.82,354.10 277.08,361.31 279.28,370.81 278.29,380.53 274.62,389.55 270.90,394.98">
        <lane id="172927073#5_0" index="0" allow="vip" speed="27.78" length="490.15" width="9.60" shape="310.50,284.25 223.35,306.63 216.06,306.84 209.45,305.42 203.30,301.71 197.39,294.57 193.97,288.97 192.78,283.54 192.77,278.28 194.58,274.21 198.99,269.53 204.68,261.86 206.78,257.12 207.21,251.81 205.91,245.10 202.31,239.36 194.52,233.48 182.03,234.07 164.79,238.62 153.55,247.26 148.51,253.95 144.74,263.12 142.84,271.23 141.71,279.17 142.32,288.05 146.05,296.06 154.94,311.40 165.05,325.98 172.91,338.96 178.31,343.24 181.83,346.80 190.31,349.82 198.64,350.37 214.01,346.88 241.60,340.72 249.72,340.30 256.39,341.49 263.15,344.47 268.90,348.90 273.82,354.10 277.08,361.31 279.28,370.81 278.29,380.53 274.62,389.55 272.77,392.24"/>
    </edge>
    <edge id="172927073#6" from="1837646045" to="2504813573" priority="14" type="highway.raceway" spreadType="center" shape="270.90,394.98 255.48,414.19 253.63,418.91 253.13,422.91 253.53,426.31 254.37,430.92 256.19,434.72 259.48,438.98 263.66,442.43 268.73,444.73 273.98,445.62 279.80,444.84 284.93,442.77 289.63,439.72 293.37,435.95 351.39,314.38">
        <lane id="172927073#6_0" index="0" allow="vip" speed="27.78" length="178.36" width="9.60" shape="253.14,423.01 253.53,426.31 254.37,430.92 256.19,434.72 259.48,438.98 263.66,442.43 268.73,444.73 273.98,445.62 279.80,444.84 284.93,442.77 289.63,439.72 293.37,435.95 345.98,325.73"/>
    </edge>
    <edge id="172927073#7" from="2504813573" to="1837645928" priority="0" spreadType="center" shape="351.39,314.38 353.75,309.36 386.15,245.17 389.42,237.66 392.32,224.78">
        <lane id="172927073#7_0" index="0" allow="vip" speed="27.78" length="74.79" width="9.60" shape="361.57,293.88 386.15,245.17 389.42,237.66 392.06,225.91"/>
    </edge>
    <edge id="172927499#0" from="1837646045" to="2264540325" priority="14" spreadType="center" shape="270.90,394.98 262.35,397.12 256.34,401.89 251.06,408.57 244.76,415.95 240.99,421.82 237.79,427.84 235.72,433.29 235.41,439.37 237.42,445.34 240.54,451.54 244.38,456.04 250.23,460.75 255.72,463.64 262.36,465.69 267.04,466.23 274.77,465.32 281.35,463.28 287.62,460.20 293.72,455.46 297.90,450.58 301.20,445.70 306.24,435.62 311.13,421.32 318.06,405.50">
        <lane id="172927499#0_0" index="0" allow="vip" speed="27.78" length="157.82" width="9.60" shape="246.21,414.25 244.76,415.95 240.99,421.82 237.79,427.84 235.72,433.29 235.41,439.37 237.42,445.34 240.54,451.54 244.38,456.04 250.23,460.75 255.72,463.64 262.36,465.69 267.04,466.23 274.77,465.32 281.35,463.28 287.62,460.20 293.72,455.46 297.90,450.58 301.20,445.70 306.24,435.62 311.13,421.32 318.06,405.50"/>
    </edge>
    <edge id="172927499#1" from="2264540325" to="1837645873" priority="14" spreadType="center">
        <lane id="172927499#1_0" index="0" allow="vip" speed="27.78" length="75.21" width="9.60" shape="318.06,405.50 351.39,338.08"/>
    </edge>
    <edge id="243040316" from="2504813573" to="1837645831" priority="14" type="highway.raceway" spreadType="center" shape="351.39,314.38 350.70,304.76 346.44,293.83 340.09,288.79 330.07,284.93 313.10,283.58">
        <lane id="243040316_0" index="0" allow="vip" speed="27.78" length="21.69" width="9.60" shape="339.92,294.84 337.66,293.05 328.99,289.71 326.26,289.49"/>
        <lane id="243040316_1" index="1" allow="vip" speed="27.78" length="21.69" width="9.60" shape="351.20,292.69 350.48,290.84 342.53,284.53 331.16,280.15 327.03,279.82"/>
    </edge>
    <edge id="243040319" from="2504813584" to="2504813560" priority="0" spreadType="center" shape="316.07,248.46 354.69,240.40 378.48,232.25 383.94,228.11 390.66,216.66">
        <lane id="243040319_0" index="0" allow="vip" speed="27.78" length="66.04" width="9.60" shape="330.30,245.49 354.69,240.40 378.48,232.25 383.94,228.11 388.56,220.23"/>
    </edge>

    <junction id="1774846008" type="dead_end" x="479.63" y="243.72" incLanes="" intLanes="" shape="473.25,236.48 486.01,250.96"/>
    <junction id="1774846058" type="priority" x="447.49" y="340.71" incLanes="165986119#2_0 165986119#2_1 165986117_0 165986117_1" intLanes=":1774846058_4_0 :1774846058_5_0 :1774846058_2_0 :1774846058_2_1" shape="453.65,358.43 473.77,346.87 459.24,337.98 441.57,330.20 431.61,348.08 451.61,359.09">
        <request index="0" response="1100" foes="1100" cont="1"/>
        <request index="1" response="1100" foes="1100" cont="1"/>
        <request index="2" response="0000" foes="0011" cont="0"/>
        <request index="3" response="0000" foes="0011" cont="0"/>
    </junction>
    <junction id="1774846062" type="priority" x="423.00" y="353.38" incLanes="165986119#0_0 165986119#0_1" intLanes=":1774846062_0_0 :1774846062_0_1 :1774846062_2_0 :1774846062_2_1" shape="428.04,366.44 436.30,349.00 436.48,347.42 419.02,339.19 409.48,358.99 426.80,367.51">
        <request index="0" response="0000" foes="0000" cont="0"/>
        <request index="1" response="0000" foes="0000" cont="0"/>
        <request index="2" response="0000" foes="0000" cont="0"/>
        <request index="3" response="0000" foes="0000" cont="0"/>
    </junction>
    <junction id="1774846067" type="priority" x="432.17" y="357.72" incLanes="165986124#0_0 165986124#0_1" intLanes=":1774846067_0_0 :1774846067_0_1 :1774846067_2_0 :1774846067_2_1" shape="441.00,365.45 453.89,357.80 453.57,355.37 438.01,338.90 432.71,347.30 424.46,364.75">
        <request index="0" response="0000" foes="0000" cont="0"/>
        <request index="1" response="0000" foes="0000" cont="0"/>
        <request index="2" response="0000" foes="0000" cont="0"/>
        <request index="3" response="0000" foes="0000" cont="0"/>
    </junction>
    <junction id="1774846077" type="priority" x="413.92" y="371.84" incLanes="165986124#1_0 165986124#1_1 165986119#1_0 165986119#1_1" intLanes=":1774846077_0_0 :1774846077_0_1 :1774846077_2_0 :1774846077_2_1" shape="428.02,383.02 430.16,363.82 429.33,362.37 412.01,353.85 401.23,376.08 425.13,383.96">
        <request index="0" response="0000" foes="1100" cont="0"/>
        <request index="1" response="0000" foes="1100" cont="0"/>
        <request index="2" response="0011" foes="0011" cont="0"/>
        <request index="3" response="0011" foes="0011" cont="0"/>
    </junction>
    <junction id="1837645831" type="priority" x="313.10" y="283.58" incLanes="243040316_0 243040316_1 172927073#4_0" intLanes=":1837645831_0_0 :1837645831_1_0" shape="325.88,294.28 327.41,275.04 326.54,273.55 319.33,265.90 309.31,279.60 311.70,288.90">
        <request index="0" response="00" foes="10" cont="0"/>
        <request index="1" response="01" foes="01" cont="0"/>
    </junction>
    <junction id="1837645873" type="priority" x="351.45" y="337.95" incLanes="172927499#1_0" intLanes=":1837645873_0_0" shape="355.81,339.97 347.23,335.66 347.08,335.95 355.69,340.21">
        <request index="0" response="0" foes="0" cont="0"/>
    </junction>
    <junction id="1837645928" type="priority" x="392.32" y="224.78" incLanes="172927073#1_0 172927073#7_0" intLanes=":1837645928_0_0 :1837645928_1_0" shape="387.62,226.26 397.19,225.52 396.80,222.73 387.39,224.65">
        <request index="0" response="00" foes="10" cont="0"/>
        <request index="1" response="01" foes="01" cont="0"/>
    </junction>
    <junction id="1837646045" type="priority" x="270.90" y="394.98" incLanes="172927073#5_0" intLanes=":1837646045_0_0 :1837646045_1_0" shape="276.73,394.96 268.81,389.53 244.48,408.89 247.99,419.79 248.65,420.05 258.44,426.52">
        <request index="0" response="00" foes="00" cont="0"/>
        <request index="1" response="00" foes="00" cont="0"/>
    </junction>
    <junction id="2264540309" type="dead_end" x="498.66" y="232.93" incLanes="165986119#3_0 165986119#3_1" intLanes="" shape="501.80,242.05 495.52,223.80"/>
    <junction id="2264540316" type="priority" x="391.85" y="257.64" incLanes="172927073#0_0" intLanes=":2264540316_0_0" shape="396.21,259.66 387.63,255.35 387.50,255.62 396.07,259.93">
        <request index="0" response="0" foes="0" cont="0"/>
    </junction>
    <junction id="2264540325" type="priority" x="318.06" y="405.50" incLanes="172927499#0_0" intLanes=":2264540325_0_0" shape="322.40,407.54 313.80,403.29 313.62,403.66 322.41,407.52">
        <request index="0" response="0" foes="0" cont="0"/>
    </junction>
    <junction id="2504813560" type="priority" x="390.66" y="216.66" incLanes="172927073#2_0 243040319_0" intLanes=":2504813560_0_0 :2504813560_1_0" shape="386.13,218.45 395.53,216.53 393.04,210.79 384.50,215.18 384.42,217.80 392.70,222.66">
        <request index="0" response="00" foes="10" cont="0"/>
        <request index="1" response="01" foes="01" cont="0"/>
    </junction>
    <junction id="2504813573" type="priority" x="351.39" y="314.38" incLanes="172927073#6_0" intLanes=":2504813573_0_0 :2504813573_0_1 :2504813573_2_0" shape="365.91,295.92 357.22,291.84 356.00,291.78 332.59,296.24 341.64,323.67 350.31,327.80">
        <request index="0" response="000" foes="000" cont="0"/>
        <request index="1" response="000" foes="000" cont="0"/>
        <request index="2" response="000" foes="000" cont="0"/>
    </junction>
    <junction id="2504813584" type="priority" x="316.07" y="248.46" incLanes="172927073#3_0" intLanes=":2504813584_0_0 :2504813584_1_0" shape="319.59,264.68 330.03,251.94 331.29,250.19 329.32,240.79 313.46,243.81 314.02,253.39">
        <request index="0" response="00" foes="00" cont="0"/>
        <request index="1" response="00" foes="00" cont="0"/>
    </junction>

    <junction id=":1774846058_4_0" type="internal" x="454.74" y="353.08" incLanes=":1774846058_0_0 165986117_0 165986117_1" intLanes=":1774846058_2_0 :1774846058_2_1"/>
    <junction id=":1774846058_5_0" type="internal" x="457.34" y="342.44" incLanes=":1774846058_0_1 165986117_0 165986117_1" intLanes=":1774846058_2_0 :1774846058_2_1"/>

    <connection from="165986117" to="165986119#3" fromLane="0" toLane="0" via=":1774846058_2_0" dir="s" state="M"/>
    <connection from="165986117" to="165986119#3" fromLane="1" toLane="1" via=":1774846058_2_1" dir="s" state="M"/>
    <connection from="165986119#0" to="165986124#0" fromLane="0" toLane="0" via=":1774846062_0_0" dir="r" state="M"/>
    <connection from="165986119#0" to="165986124#0" fromLane="0" toLane="1" via=":1774846062_0_1" dir="r" state="M"/>
    <connection from="165986119#0" to="165986119#1" fromLane="0" toLane="0" via=":1774846062_2_0" dir="s" state="M"/>