<nodes>
    <!--
    <node id="1837645873" type="zipper"/>
    -->
</nodes>
