<additional>

    <tlLogic id="1/1" type="static" programID="adapted" offset="0">
        <phase duration="32" state="rrrGGgrrrGGg" minDur="12" maxDur="52" type="target;decisional" targetLanes="2/1_to_1/1.-100_0 2/1_to_1/1.-100_1 0/1_to_1/1.-100_0 0/1_to_1/1.-100_1"/>
        <phase duration="4" state="rrryyyrrryyy" type="transient"/>
        <phase duration="4" state="rrrrrrrrrrrr" type="transient;commit"/>
        <phase duration="32" state="GGgrrrGGgrrr" minDur="12" maxDur="52" type="target;decisional" targetLanes="1/2_to_1/1.-100_0 1/2_to_1/1.-100_1 1/0_to_1/1.-100_0 1/0_to_1/1.-100_1"/>
        <phase duration="4" state="yyyrrryyyrrr" type="transient"/>
        <phase duration="4" state="rrrrrrrrrrrr" type="transient;commit"/>
    </tlLogic>
    <tlLogic id="1/2" type="static" programID="adapted" offset="0">
        <phase duration="32" state="rrrGGgrrrGGg" minDur="12" maxDur="52" type="target;decisional" targetLanes="2/2_to_1/2.-100_0 2/2_to_1/2.-100_1 0/2_to_1/2.-100_0 0/2_to_1/2.-100_1"/>
        <phase duration="4" state="rrryyyrrryyy" type="transient"/>
        <phase duration="4" state="rrrrrrrrrrrr" type="transient;commit"/>
        <phase duration="32" state="GGgrrrGGgrrr" minDur="12" maxDur="52" type="target;decisional" targetLanes="1/2_to_1/1.-100_0 1/2_to_1/1.-100_1 1/0_to_1/1.-100_0 1/0_to_1/1.-100_1"/>
        <phase duration="4" state="yyyrrryyyrrr" type="transient"/>
        <phase duration="4" state="rrrrrrrrrrrr" type="transient;commit"/>
    </tlLogic>
    <tlLogic id="1/3" type="static" programID="adapted" offset="0">
        <phase duration="32" state="rrrGGgrrrGGg" minDur="12" maxDur="52" type="target;decisional" targetLanes="2/3_to_1/3.-100_0 2/3_to_1/3.-100_1 0/3_to_1/3.-100_0 0/3_to_1/3.-100_1"/>
        <phase duration="4" state="rrryyyrrryyy" type="transient"/>
        <phase duration="4" state="rrrrrrrrrrrr" type="transient;commit"/>
        <phase duration="32" state="GGgrrrGGgrrr" minDur="12" maxDur="52" type="target;decisional" targetLanes="1/2_to_1/1.-100_0 1/2_to_1/1.-100_1 1/0_to_1/1.-100_0 1/0_to_1/1.-100_1"/>
        <phase duration="4" state="yyyrrryyyrrr" type="transient"/>
        <phase duration="4" state="rrrrrrrrrrrr" type="transient;commit"/>
    </tlLogic>
    <tlLogic id="1/4" type="static" programID="adapted" offset="0">
        <phase duration="32" state="rrrGGgrrrGGg" minDur="12" maxDur="52" type="target;decisional" targetLanes="2/4_to_1/4.-100_0 2/4_to_1/4.-100_1 0/4_to_1/4.-100_0 0/4_to_1/4.-100_1"/>
        <phase duration="4" state="rrryyyrrryyy" type="transient"/>
        <phase duration="4" state="rrrrrrrrrrrr" type="transient;commit"/>
        <phase duration="32" state="GGgrrrGGgrrr" minDur="12" maxDur="52" type="target;decisional" targetLanes="1/2_to_1/1.-100_0 1/2_to_1/1.-100_1 1/0_to_1/1.-100_0 1/0_to_1/1.-100_1"/>
        <phase duration="4" state="yyyrrryyyrrr" type="transient"/>
        <phase duration="4" state="rrrrrrrrrrrr" type="transient;commit"/>
    </tlLogic>
    <tlLogic id="1/5" type="static" programID="adapted" offset="0">
        <phase duration="32" state="rrrGGgrrrGGg" minDur="12" maxDur="52" type="target;decisional" targetLanes="2/5_to_1/5.-100_0 2/5_to_1/5.-100_1 0/5_to_1/5.-100_0 0/5_to_1/5.-100_1"/>
        <phase duration="4" state="rrryyyrrryyy" type="transient"/>
        <phase duration="4" state="rrrrrrrrrrrr" type="transient;commit"/>
        <phase duration="32" state="GGgrrrGGgrrr" minDur="12" maxDur="52" type="target;decisional" targetLanes="1/2_to_1/1.-100_0 1/2_to_1/1.-100_1 1/0_to_1/1.-100_0 1/0_to_1/1.-100_1"/>
        <phase duration="4" state="yyyrrryyyrrr" type="transient"/>
        <phase duration="4" state="rrrrrrrrrrrr" type="transient;commit"/>
    </tlLogic>
    <tlLogic id="2/1" type="static" programID="adapted" offset="0">
        <phase duration="32" state="rrrGGgrrrGGg" minDur="12" maxDur="52" type="target;decisional" targetLanes="3/1_to_2/1.-100_0 3/1_to_2/1.-100_1 1/1_to_2/1.-100_0 1/1_to_2/1.-100_1"/>
        <phase duration="4" state="rrryyyrrryyy" type="transient"/>
        <phase duration="4" state="rrrrrrrrrrrr" type="transient;commit"/>
        <phase duration="32" state="GGgrrrGGgrrr" minDur="12" maxDur="52" type="target;decisional" targetLanes="1/2_to_1/1.-100_0 1/2_to_1/1.-100_1 1/0_to_1/1.-100_0 1/0_to_1/1.-100_1"/>
        <phase duration="4" state="yyyrrryyyrrr" type="transient"/>
        <phase duration="4" state="rrrrrrrrrrrr" type="transient;commit"/>
    </tlLogic>
    <tlLogic id="2/2" type="static" programID="adapted" offset="0">
        <phase duration="32" state="rrrGGgrrrGGg" minDur="12" maxDur="52" type="target;decisional" targetLanes="3/2_to_2/2.-100_0 3/2_to_2/2.-100_1 1/2_to_2/2.-100_0 1/2_to_2/2.-100_1"/>
        <phase duration="4" state="rrryyyrrryyy" type="transient"/>
        <phase duration="4" state="rrrrrrrrrrrr" type="transient;commit"/>
        <phase duration="32" state="GGgrrrGGgrrr" minDur="12" maxDur="52" type="target;decisional" targetLanes="1/2_to_1/1.-100_0 1/2_to_1/1.-100_1 1/0_to_1/1.-100_0 1/0_to_1/1.-100_1"/>
        <phase duration="4" state="yyyrrryyyrrr" type="transient"/>
        <phase duration="4" state="rrrrrrrrrrrr" type="transient;commit"/>
    </tlLogic>
    <tlLogic id="2/3" type="static" programID="adapted" offset="0">
        <phase duration="32" state="rrrGGgrrrGGg" minDur="12" maxDur="52" type="target;decisional" targetLanes="3/3_to_2/3.-100_0 3/3_to_2/3.-100_1 1/3_to_2/3.-100_0 1/3_to_2/3.-100_1"/>
        <phase duration="4" state="rrryyyrrryyy" type="transient"/>
        <phase duration="4" state="rrrrrrrrrrrr" type="transient;commit"/>
        <phase duration="32" state="GGgrrrGGgrrr" minDur="12" maxDur="52" type="target;decisional" targetLanes="1/2_to_1/1.-100_0 1/2_to_1/1.-100_1 1/0_to_1/1.-100_0 1/0_to_1/1.-100_1"/>
        <phase duration="4" state="yyyrrryyyrrr" type="transient"/>
        <phase duration="4" state="rrrrrrrrrrrr" type="transient;commit"/>
    </tlLogic>
    <tlLogic id="2/4" type="static" programID="adapted" offset="0">
        <phase duration="32" state="rrrGGgrrrGGg" minDur="12" maxDur="52" type="target;decisional" targetLanes="2/4_to_1/4.-100_0 2/4_to_1/4.-100_1 0/4_to_1/4.-100_0 0/4_to_1/4.-100_1"/>
        <phase duration="4" state="rrryyyrrryyy" type="transient"/>
        <phase duration="4" state="rrrrrrrrrrrr" type="transient;commit"/>
        <phase duration="32" state="GGgrrrGGgrrr" minDur="12" maxDur="52" type="target;decisional" targetLanes="1/2_to_1/1.-100_0 1/2_to_1/1.-100_1 1/0_to_1/1.-100_0 1/0_to_1/1.-100_1"/>
        <phase duration="4" state="yyyrrryyyrrr" type="transient"/>
        <phase duration="4" state="rrrrrrrrrrrr" type="transient;commit"/>
    </tlLogic>
    <tlLogic id="2/5" type="static" programID="adapted" offset="0">
        <phase duration="32" state="rrrGGgrrrGGg" minDur="12" maxDur="52" type="target;decisional" targetLanes="2/5_to_1/5.-100_0 2/5_to_1/5.-100_1 0/5_to_1/5.-100_0 0/5_to_1/5.-100_1"/>
        <phase duration="4" state="rrryyyrrryyy" type="transient"/>
        <phase duration="4" state="rrrrrrrrrrrr" type="transient;commit"/>
        <phase duration="32" state="GGgrrrGGgrrr" minDur="12" maxDur="52" type="target;decisional" targetLanes="1/2_to_1/1.-100_0 1/2_to_1/1.-100_1 1/0_to_1/1.-100_0 1/0_to_1/1.-100_1"/>
        <phase duration="4" state="yyyrrryyyrrr" type="transient"/>
        <phase duration="4" state="rrrrrrrrrrrr" type="transient;commit"/>
    </tlLogic>
    <tlLogic id="3/1" type="static" programID="adapted" offset="0">
        <phase duration="32" state="rrrGGgrrrGGg" minDur="12" maxDur="52" type="target;decisional" targetLanes="2/1_to_1/1.-100_0 2/1_to_1/1.-100_1 0/1_to_1/1.-100_0 0/1_to_1/1.-100_1"/>
        <phase duration="4" state="rrryyyrrryyy" type="transient"/>
        <phase duration="4" state="rrrrrrrrrrrr" type="transient;commit"/>
        <phase duration="32" state="GGgrrrGGgrrr" minDur="12" maxDur="52" type="target;decisional" targetLanes="1/2_to_1/1.-100_0 1/2_to_1/1.-100_1 1/0_to_1/1.-100_0 1/0_to_1/1.-100_1"/>
        <phase duration="4" state="yyyrrryyyrrr" type="transient"/>
        <phase duration="4" state="rrrrrrrrrrrr" type="transient;commit"/>
    </tlLogic>
    <tlLogic id="3/2" type="static" programID="adapted" offset="0">
        <phase duration="32" state="rrrGGgrrrGGg" minDur="12" maxDur="52" type="target;decisional" targetLanes="2/2_to_1/2.-100_0 2/2_to_1/2.-100_1 0/2_to_1/2.-100_0 0/2_to_1/2.-100_1"/>
        <phase duration="4" state="rrryyyrrryyy" type="transient"/>
        <phase duration="4" state="rrrrrrrrrrrr" type="transient;commit"/>
        <phase duration="32" state="GGgrrrGGgrrr" minDur="12" maxDur="52" type="target;decisional" targetLanes="1/2_to_1/1.-100_0 1/2_to_1/1.-100_1 1/0_to_1/1.-100_0 1/0_to_1/1.-100_1"/>
        <phase duration="4" state="yyyrrryyyrrr" type="transient"/>
        <phase duration="4" state="rrrrrrrrrrrr" type="transient;commit"/>
    </tlLogic>
    <tlLogic id="3/3" type="static" programID="adapted" offset="0">
        <phase duration="32" state="rrrGGgrrrGGg" minDur="12" maxDur="52" type="target;decisional" targetLanes="2/3_to_1/3.-100_0 2/3_to_1/3.-100_1 0/3_to_1/3.-100_0 0/3_to_1/3.-100_1"/>
        <phase duration="4" state="rrryyyrrryyy" type="transient"/>
        <phase duration="4" state="rrrrrrrrrrrr" type="transient;commit"/>
        <phase duration="32" state="GGgrrrGGgrrr" minDur="12" maxDur="52" type="target;decisional" targetLanes="1/2_to_1/1.-100_0 1/2_to_1/1.-100_1 1/0_to_1/1.-100_0 1/0_to_1/1.-100_1"/>
        <phase duration="4" state="yyyrrryyyrrr" type="transient"/>
        <phase duration="4" state="rrrrrrrrrrrr" type="transient;commit"/>
    </tlLogic>
    <tlLogic id="3/4" type="static" programID="adapted" offset="0">
        <phase duration="32" state="rrrGGgrrrGGg" minDur="12" maxDur="52" type="target;decisional" targetLanes="2/4_to_1/4.-100_0 2/4_to_1/4.-100_1 0/4_to_1/4.-100_0 0/4_to_1/4.-100_1"/>
        <phase duration="4" state="rrryyyrrryyy" type="transient"/>
        <phase duration="4" state="rrrrrrrrrrrr" type="transient;commit"/>
        <phase duration="32" state="GGgrrrGGgrrr" minDur="12" maxDur="52" type="target;decisional" targetLanes="1/2_to_1/1.-100_0 1/2_to_1/1.-100_1 1/0_to_1/1.-100_0 1/0_to_1/1.-100_1"/>
        <phase duration="4" state="yyyrrryyyrrr" type="transient"/>
        <phase duration="4" state="rrrrrrrrrrrr" type="transient;commit"/>
    </tlLogic>
    <tlLogic id="3/5" type="static" programID="adapted" offset="0">
        <phase duration="32" state="rrrGGgrrrGGg" minDur="12" maxDur="52" type="target;decisional" targetLanes="2/5_to_1/5.-100_0 2/5_to_1/5.-100_1 0/5_to_1/5.-100_0 0/5_to_1/5.-100_1"/>
        <phase duration="4" state="rrryyyrrryyy" type="transient"/>
        <phase duration="4" state="rrrrrrrrrrrr" type="transient;commit"/>
        <phase duration="32" state="GGgrrrGGgrrr" minDur="12" maxDur="52" type="target;decisional" targetLanes="1/2_to_1/1.-100_0 1/2_to_1/1.-100_1 1/0_to_1/1.-100_0 1/0_to_1/1.-100_1"/>
        <phase duration="4" state="yyyrrryyyrrr" type="transient"/>
        <phase duration="4" state="rrrrrrrrrrrr" type="transient;commit"/>
    </tlLogic>
    <tlLogic id="4/1" type="static" programID="adapted" offset="0">
        <phase duration="32" state="rrrGGgrrrGGg" minDur="12" maxDur="52" type="target;decisional" targetLanes="2/1_to_1/1.-100_0 2/1_to_1/1.-100_1 0/1_to_1/1.-100_0 0/1_to_1/1.-100_1"/>
        <phase duration="4" state="rrryyyrrryyy" type="transient"/>
        <phase duration="4" state="rrrrrrrrrrrr" type="transient;commit"/>
        <phase duration="32" state="GGgrrrGGgrrr" minDur="12" maxDur="52" type="target;decisional" targetLanes="1/2_to_1/1.-100_0 1/2_to_1/1.-100_1 1/0_to_1/1.-100_0 1/0_to_1/1.-100_1"/>
        <phase duration="4" state="yyyrrryyyrrr" type="transient"/>
        <phase duration="4" state="rrrrrrrrrrrr" type="transient;commit"/>
    </tlLogic>
    <tlLogic id="4/2" type="static" programID="adapted" offset="0">
        <phase duration="32" state="rrrGGgrrrGGg" minDur="12" maxDur="52" type="target;decisional" targetLanes="2/2_to_1/2.-100_0 2/2_to_1/2.-100_1 0/2_to_1/2.-100_0 0/2_to_1/2.-100_1"/>
        <phase duration="4" state="rrryyyrrryyy" type="transient"/>
        <phase duration="4" state="rrrrrrrrrrrr" type="transient;commit"/>
        <phase duration="32" state="GGgrrrGGgrrr" minDur="12" maxDur="52" type="target;decisional" targetLanes="1/2_to_1/1.-100_0 1/2_to_1/1.-100_1 1/0_to_1/1.-100_0 1/0_to_1/1.-100_1"/>
        <phase duration="4" state="yyyrrryyyrrr" type="transient"/>
        <phase duration="4" state="rrrrrrrrrrrr" type="transient;commit"/>
    </tlLogic>
    <tlLogic id="4/3" type="static" programID="adapted" offset="0">
        <phase duration="32" state="rrrGGgrrrGGg" minDur="12" maxDur="52" type="target;decisional" targetLanes="2/3_to_1/3.-100_0 2/3_to_1/3.-100_1 0/3_to_1/3.-100_0 0/3_to_1/3.-100_1"/>
        <phase duration="4" state="rrryyyrrryyy" type="transient"/>
        <phase duration="4" state="rrrrrrrrrrrr" type="transient;commit"/>
        <phase duration="32" state="GGgrrrGGgrrr" minDur="12" maxDur="52" type="target;decisional" targetLanes="1/2_to_1/1.-100_0 1/2_to_1/1.-100_1 1/0_to_1/1.-100_0 1/0_to_1/1.-100_1"/>
        <phase duration="4" state="yyyrrryyyrrr" type="transient"/>
        <phase duration="4" state="rrrrrrrrrrrr" type="transient;commit"/>
    </tlLogic>
    <tlLogic id="4/4" type="static" programID="adapted" offset="0">
        <phase duration="32" state="rrrGGgrrrGGg" minDur="12" maxDur="52" type="target;decisional" targetLanes="2/4_to_1/4.-100_0 2/4_to_1/4.-100_1 0/4_to_1/4.-100_0 0/4_to_1/4.-100_1"/>
        <phase duration="4" state="rrryyyrrryyy" type="transient"/>
        <phase duration="4" state="rrrrrrrrrrrr" type="transient;commit"/>
        <phase duration="32" state="GGgrrrGGgrrr" minDur="12" maxDur="52" type="target;decisional" targetLanes="1/2_to_1/1.-100_0 1/2_to_1/1.-100_1 1/0_to_1/1.-100_0 1/0_to_1/1.-100_1"/>
        <phase duration="4" state="yyyrrryyyrrr" type="transient"/>
        <phase duration="4" state="rrrrrrrrrrrr" type="transient;commit"/>
    </tlLogic>
    <tlLogic id="4/5" type="static" programID="adapted" offset="0">
        <phase duration="32" state="rrrGGgrrrGGg" minDur="12" maxDur="52" type="target;decisional" targetLanes="2/5_to_1/5.-100_0 2/5_to_1/5.-100_1 0/5_to_1/5.-100_0 0/5_to_1/5.-100_1"/>
        <phase duration="4" state="rrryyyrrryyy" type="transient"/>
        <phase duration="4" state="rrrrrrrrrrrr" type="transient;commit"/>
        <phase duration="32" state="GGgrrrGGgrrr" minDur="12" maxDur="52" type="target;decisional" targetLanes="1/2_to_1/1.-100_0 1/2_to_1/1.-100_1 1/0_to_1/1.-100_0 1/0_to_1/1.-100_1"/>
        <phase duration="4" state="yyyrrryyyrrr" type="transient"/>
        <phase duration="4" state="rrrrrrrrrrrr" type="transient;commit"/>
    </tlLogic>
    <tlLogic id="5/1" type="static" programID="adapted" offset="0">
        <phase duration="32" state="rrrGGgrrrGGg" minDur="12" maxDur="52" type="target;decisional" targetLanes="2/1_to_1/1.-100_0 2/1_to_1/1.-100_1 0/1_to_1/1.-100_0 0/1_to_1/1.-100_1"/>
        <phase duration="4" state="rrryyyrrryyy" type="transient"/>
        <phase duration="4" state="rrrrrrrrrrrr" type="transient;commit"/>
        <phase duration="32" state="GGgrrrGGgrrr" minDur="12" maxDur="52" type="target;decisional" targetLanes="1/2_to_1/1.-100_0 1/2_to_1/1.-100_1 1/0_to_1/1.-100_0 1/0_to_1/1.-100_1"/>
        <phase duration="4" state="yyyrrryyyrrr" type="transient"/>
        <phase duration="4" state="rrrrrrrrrrrr" type="transient;commit"/>
    </tlLogic>
    <tlLogic id="5/2" type="static" programID="adapted" offset="0">
        <phase duration="32" state="rrrGGgrrrGGg" minDur="12" maxDur="52" type="target;decisional" targetLanes="2/2_to_1/2.-100_0 2/2_to_1/2.-100_1 0/2_to_1/2.-100_0 0/2_to_1/2.-100_1"/>
        <phase duration="4" state="rrryyyrrryyy" type="transient"/>
        <phase duration="4" state="rrrrrrrrrrrr" type="transient;commit"/>
        <phase duration="32" state="GGgrrrGGgrrr" minDur="12" maxDur="52" type="target;decisional" targetLanes="1/2_to_1/1.-100_0 1/2_to_1/1.-100_1 1/0_to_1/1.-100_0 1/0_to_1/1.-100_1"/>
        <phase duration="4" state="yyyrrryyyrrr" type="transient"/>
        <phase duration="4" state="rrrrrrrrrrrr" type="transient;commit"/>
    </tlLogic>
    <tlLogic id="5/3" type="static" programID="adapted" offset="0">
        <phase duration="32" state="rrrGGgrrrGGg" minDur="12" maxDur="52" type="target;decisional" targetLanes="2/3_to_1/3.-100_0 2/3_to_1/3.-100_1 0/3_to_1/3.-100_0 0/3_to_1/3.-100_1"/>
        <phase duration="4" state="rrryyyrrryyy" type="transient"/>
        <phase duration="4" state="rrrrrrrrrrrr" type="transient;commit"/>
        <phase duration="32" state="GGgrrrGGgrrr" minDur="12" maxDur="52" type="target;decisional" targetLanes="1/2_to_1/1.-100_0 1/2_to_1/1.-100_1 1/0_to_1/1.-100_0 1/0_to_1/1.-100_1"/>
        <phase duration="4" state="yyyrrryyyrrr" type="transient"/>
        <phase duration="4" state="rrrrrrrrrrrr" type="transient;commit"/>
    </tlLogic>
    <tlLogic id="5/4" type="static" programID="adapted" offset="0">
        <phase duration="32" state="rrrGGgrrrGGg" minDur="12" maxDur="52" type="target;decisional" targetLanes="2/4_to_1/4.-100_0 2/4_to_1/4.-100_1 0/4_to_1/4.-100_0 0/4_to_1/4.-100_1"/>
        <phase duration="4" state="rrryyyrrryyy" type="transient"/>
        <phase duration="4" state="rrrrrrrrrrrr" type="transient;commit"/>
        <phase duration="32" state="GGgrrrGGgrrr" minDur="12" maxDur="52" type="target;decisional" targetLanes="1/2_to_1/1.-100_0 1/2_to_1/1.-100_1 1/0_to_1/1.-100_0 1/0_to_1/1.-100_1"/>
        <phase duration="4" state="yyyrrryyyrrr" type="transient"/>
        <phase duration="4" state="rrrrrrrrrrrr" type="transient;commit"/>
    </tlLogic>
    <tlLogic id="5/5" type="static" programID="adapted" offset="0">
        <phase duration="32" state="rrrGGgrrrGGg" minDur="12" maxDur="52" type="target;decisional" targetLanes="2/5_to_1/5.-100_0 2/5_to_1/5.-100_1 0/5_to_1/5.-100_0 0/5_to_1/5.-100_1"/>
        <phase duration="4" state="rrryyyrrryyy" type="transient"/>
        <phase duration="4" state="rrrrrrrrrrrr" type="transient;commit"/>
        <phase duration="32" state="GGgrrrGGgrrr" minDur="12" maxDur="52" type="target;decisional" targetLanes="1/2_to_1/1.-100_0 1/2_to_1/1.-100_1 1/0_to_1/1.-100_0 1/0_to_1/1.-100_1"/>
        <phase duration="4" state="yyyrrryyyrrr" type="transient"/>
        <phase duration="4" state="rrrrrrrrrrrr" type="transient;commit"/>
    </tlLogic>

</additional>
