<?xml version="1.0" encoding="UTF-8"?>

<!-- generated on Thu Apr 18 00:13:39 2019 by Eclipse SUMO netconvert Version v1_2_0+0017-2a947141e5
This data file and the accompanying materials
are made available under the terms of the Eclipse Public License v2.0
which accompanies this distribution, and is available at
http://www.eclipse.org/legal/epl-v20.html
SPDX-License-Identifier: EPL-2.0
<configuration xmlns:xsi="http://www.w3.org/2001/XMLSchema-instance" xsi:noNamespaceSchemaLocation="http://sumo.dlr.de/xsd/netconvertConfiguration.xsd">

    <input>
        <osm-files value="osm.xml"/>
    </input>

    <output>
        <write-license value="true"/>
        <output-file value="net.net.xml"/>
        <plain-output-prefix value="plain"/>
        <output.street-names value="true"/>
    </output>

    <projection>
        <proj.utm value="true"/>
        <proj.plain-geo value="true"/>
    </projection>

    <tls_building>
        <tls.red.time value="10"/>
    </tls_building>

    <junctions>
        <no-internal-links value="true"/>
    </junctions>

    <report>
        <verbose value="true"/>
    </report>

</configuration>
-->

<net version="1.1" junctionCornerDetail="5" limitTurnSpeed="5.50" xmlns:xsi="http://www.w3.org/2001/XMLSchema-instance" xsi:noNamespaceSchemaLocation="http://sumo.dlr.de/xsd/net_file.xsd">

    <location netOffset="-399345.66,-5809365.64" convBoundary="0.00,0.00,1737.68,767.39" origBoundary="13.364829,52.424764,13.574340,52.459643" projParameter="+proj=utm +zone=33 +ellps=WGS84 +datum=WGS84 +units=m +no_defs"/>

    <type id="highway.bridleway" priority="1" numLanes="1" speed="2.78" allow="pedestrian" oneway="1" width="2.00"/>
    <type id="highway.bus_guideway" priority="1" numLanes="1" speed="27.78" allow="bus" oneway="1"/>
    <type id="highway.cycleway" priority="1" numLanes="1" speed="8.33" allow="bicycle" oneway="0" width="1.00"/>
    <type id="highway.footway" priority="1" numLanes="1" speed="2.78" allow="pedestrian" oneway="1" width="2.00"/>
    <type id="highway.ford" priority="1" numLanes="1" speed="2.78" allow="army" oneway="0"/>
    <type id="highway.living_street" priority="2" numLanes="1" speed="2.78" disallow="tram rail_urban rail rail_electric ship" oneway="0"/>
    <type id="highway.motorway" priority="14" numLanes="2" speed="39.44" allow="private emergency authority army vip passenger hov taxi bus coach delivery truck trailer motorcycle evehicle custom1 custom2" oneway="1"/>
    <type id="highway.motorway_link" priority="9" numLanes="1" speed="22.22" allow="private emergency authority army vip passenger hov taxi bus coach delivery truck trailer motorcycle evehicle custom1 custom2" oneway="1"/>
    <type id="highway.path" priority="1" numLanes="1" speed="2.78" allow="bicycle pedestrian" oneway="1" width="2.00"/>
    <type id="highway.pedestrian" priority="1" numLanes="1" speed="2.78" allow="pedestrian" oneway="1" width="2.00"/>
    <type id="highway.primary" priority="12" numLanes="2" speed="27.78" disallow="tram rail_urban rail rail_electric ship" oneway="0"/>
    <type id="highway.primary_link" priority="7" numLanes="1" speed="22.22" disallow="tram rail_urban rail rail_electric ship" oneway="0"/>
    <type id="highway.raceway" priority="15" numLanes="2" speed="83.33" allow="vip" oneway="0"/>
    <type id="highway.residential" priority="3" numLanes="1" speed="13.89" disallow="tram rail_urban rail rail_electric ship" oneway="0"/>
    <type id="highway.secondary" priority="11" numLanes="2" speed="27.78" disallow="tram rail_urban rail rail_electric ship" oneway="0"/>
    <type id="highway.secondary_link" priority="6" numLanes="1" speed="22.22" disallow="tram rail_urban rail rail_electric ship" oneway="0"/>
    <type id="highway.service" priority="1" numLanes="1" speed="5.56" allow="delivery bicycle pedestrian" oneway="0"/>
    <type id="highway.stairs" priority="1" numLanes="1" speed="1.39" allow="pedestrian" oneway="1" width="2.00"/>
    <type id="highway.step" priority="1" numLanes="1" speed="1.39" allow="pedestrian" oneway="1" width="2.00"/>
    <type id="highway.steps" priority="1" numLanes="1" speed="1.39" allow="pedestrian" oneway="1" width="2.00"/>
    <type id="highway.tertiary" priority="10" numLanes="1" speed="22.22" disallow="tram rail_urban rail rail_electric ship" oneway="0"/>
    <type id="highway.tertiary_link" priority="5" numLanes="1" speed="22.22" disallow="tram rail_urban rail rail_electric ship" oneway="0"/>
    <type id="highway.track" priority="1" numLanes="1" speed="5.56" disallow="tram rail_urban rail rail_electric ship" oneway="0"/>
    <type id="highway.trunk" priority="13" numLanes="2" speed="27.78" disallow="tram rail_urban rail rail_electric bicycle pedestrian ship" oneway="0"/>
    <type id="highway.trunk_link" priority="8" numLanes="1" speed="22.22" disallow="tram rail_urban rail rail_electric bicycle pedestrian ship" oneway="0"/>
    <type id="highway.unclassified" priority="4" numLanes="1" speed="13.89" disallow="tram rail_urban rail rail_electric ship" oneway="0"/>
    <type id="highway.unsurfaced" priority="1" numLanes="1" speed="8.33" disallow="tram rail_urban rail rail_electric ship" oneway="0"/>
    <type id="railway.light_rail" priority="19" numLanes="1" speed="27.78" allow="rail_urban" oneway="1"/>
    <type id="railway.preserved" priority="16" numLanes="1" speed="27.78" allow="rail" oneway="1"/>
    <type id="railway.rail" priority="20" numLanes="1" speed="83.33" allow="rail rail_electric" oneway="1"/>
    <type id="railway.subway" priority="18" numLanes="1" speed="27.78" allow="rail_urban" oneway="1"/>
    <type id="railway.tram" priority="17" numLanes="1" speed="13.89" allow="tram" oneway="1"/>

    <edge id="-22917251" from="32266936" to="32266938" name="Teltowkanalbrücke" priority="10" type="highway.tertiary">
        <lane id="-22917251_0" index="0" disallow="tram rail_urban rail rail_electric ship" speed="22.22" length="58.42" shape="474.36,48.87 479.18,104.72"/>
    </edge>
    <edge id="-24214693#0" from="261599791" to="32266935" name="Ernst-Ruska-Ufer" priority="12" type="highway.primary" shape="33.97,176.57 202.12,155.05 478.98,121.02">
        <lane id="-24214693#0_0" index="0" disallow="tram rail_urban rail rail_electric ship" speed="27.78" length="448.47" shape="33.51,171.79 201.52,150.29 471.02,117.17"/>
        <lane id="-24214693#0_1" index="1" disallow="tram rail_urban rail rail_electric ship" speed="27.78" length="448.47" shape="33.91,174.96 201.92,153.46 471.41,120.34"/>
    </edge>
    <edge id="-24214693#1" from="57343510" to="261599791" name="Ernst-Ruska-Ufer" priority="12" type="highway.primary">
        <lane id="-24214693#1_0" index="0" disallow="tram rail_urban rail rail_electric ship" speed="27.78" length="19.32" shape="14.17,174.56 33.15,171.84"/>
        <lane id="-24214693#1_1" index="1" disallow="tram rail_urban rail rail_electric ship" speed="27.78" length="19.32" shape="14.62,177.72 33.60,175.01"/>
    </edge>
    <edge id="-24214694" from="32266938" to="32266935" name="Wegedornstraße" priority="10" type="highway.tertiary">
        <lane id="-24214694_0" index="0" disallow="tram rail_urban rail rail_electric ship" speed="22.22" length="13.87" shape="479.61,109.70 479.68,110.51"/>
    </edge>
    <edge id="-25951490" from="32266938" to="175648134" priority="1" type="highway.cycleway">
        <lane id="-25951490_0" index="0" allow="bicycle" speed="8.33" length="466.10" width="1.00" shape="473.15,108.32 15.74,168.56"/>
    </edge>
    <edge id="-26816413#0" from="294168710" to="56231597" priority="1" type="highway.service">
        <lane id="-26816413#0_0" index="0" allow="delivery bicycle pedestrian" speed="5.56" length="65.21" shape="588.85,339.99 631.42,378.95"/>
    </edge>
    <edge id="-26816413#1" from="294168098" to="294168710" priority="1" type="highway.service">
        <lane id="-26816413#1_0" index="0" allow="delivery bicycle pedestrian" speed="5.56" length="25.92" shape="569.31,322.10 584.28,335.80"/>
    </edge>
    <edge id="-26816553" from="294168972" to="294168098" priority="1" type="highway.service" shape="714.97,226.01 706.28,235.54 682.39,261.75 633.73,223.14 570.98,302.73 563.73,311.92 566.45,321.65">
        <lane id="-26816553_0" index="0" allow="delivery bicycle pedestrian" speed="5.56" length="231.94" shape="712.94,230.61 707.46,236.62 682.57,263.93 633.99,225.39 572.24,303.72 569.95,306.62"/>
    </edge>
    <edge id="-26816590#0" from="294169338" to="294168098" priority="1" type="highway.service">
        <lane id="-26816590#0_0" index="0" allow="delivery bicycle pedestrian" speed="5.56" length="15.38" shape="560.54,308.94 560.64,309.11"/>
    </edge>
    <edge id="-26816590#1" from="294169339" to="294169338" priority="1" type="highway.service">
        <lane id="-26816590#1_0" index="0" allow="delivery bicycle pedestrian" speed="5.56" length="15.40" shape="548.06,302.31 552.62,304.29"/>
    </edge>
    <edge id="-26816590#2" from="294169342" to="294169339" priority="1" type="highway.service" shape="495.08,307.55 510.49,306.01 544.28,302.42">
        <lane id="-26816590#2_0" index="0" allow="delivery bicycle pedestrian" speed="5.56" length="49.46" shape="499.65,305.48 510.33,304.42 539.52,301.31"/>
    </edge>
    <edge id="-26816627" from="294169618" to="294169338" priority="1" type="highway.service">
        <lane id="-26816627_0" index="0" allow="delivery bicycle pedestrian" speed="5.56" length="158.99" shape="542.77,150.31 559.25,301.40"/>
    </edge>
    <edge id="-26843019" from="294829798" to="294829385" priority="1" type="highway.service">
        <lane id="-26843019_0" index="0" allow="delivery bicycle pedestrian" speed="5.56" length="98.96" shape="921.00,411.47 863.15,479.74"/>
    </edge>
    <edge id="-26843038#0" from="294830184" to="294829881" priority="1" type="highway.service">
        <lane id="-26843038#0_0" index="0" allow="delivery bicycle pedestrian" speed="5.56" length="44.07" shape="919.12,482.66 896.55,508.76"/>
    </edge>
    <edge id="-26843038#1" from="294830188" to="294830184" priority="1" type="highway.service" shape="970.58,476.14 943.81,451.65 921.09,477.93">
        <lane id="-26843038#1_0" index="0" allow="delivery bicycle pedestrian" speed="5.56" length="71.03" shape="967.07,475.10 943.94,453.94 925.27,475.54"/>
    </edge>
    <edge id="-26843038#2" from="294830184" to="294830188" priority="1" type="highway.service" shape="921.09,477.93 945.99,501.67 970.58,476.14">
        <lane id="-26843038#2_0" index="0" allow="delivery bicycle pedestrian" speed="5.56" length="69.85" shape="925.71,480.13 945.94,499.42 967.15,477.40"/>
    </edge>
    <edge id="-26843133#0" from="294831560" to="294169339" priority="1" type="highway.service">
        <lane id="-26843133#0_0" index="0" allow="delivery bicycle pedestrian" speed="5.56" length="9.95" shape="545.46,297.03 545.51,297.70"/>
    </edge>
    <edge id="-26843133#1" from="294831562" to="294831560" priority="1" type="highway.service" shape="501.77,245.17 539.68,243.24 543.50,292.50">
        <lane id="-26843133#1_0" index="0" allow="delivery bicycle pedestrian" speed="5.56" length="87.36" shape="504.97,243.40 541.15,241.56 544.73,287.66"/>
    </edge>
    <edge id="-26843133#2" from="294831560" to="294831562" priority="1" type="highway.service" shape="543.50,292.50 505.71,295.17 501.77,245.17">
        <lane id="-26843133#2_0" index="0" allow="delivery bicycle pedestrian" speed="5.56" length="88.05" shape="538.91,294.43 504.24,296.88 500.43,248.57"/>
    </edge>
    <edge id="-5198584" from="36268382" to="36268416" name="Justus-von-Liebig-Straße" priority="3" type="highway.residential" shape="1438.58,542.41 1262.01,371.09 1055.08,184.85">
        <lane id="-5198584_0" index="0" disallow="tram rail_urban rail rail_electric ship" speed="13.89" length="524.41" shape="1437.46,543.56 1260.92,372.26 1059.44,190.93"/>
    </edge>
    <edge id="-5198585#0" from="294168972" to="36268369" name="Albert-Einstein-Straße" priority="3" type="highway.residential" shape="714.97,226.01 660.89,178.88 646.66,160.06 641.03,106.11">
        <lane id="-5198585#0_0" index="0" disallow="tram rail_urban rail rail_electric ship" speed="13.89" length="149.57" shape="710.32,224.08 659.72,179.98 645.11,160.67 640.51,116.53"/>
    </edge>
    <edge id="-5198585#1" from="36268375" to="294168972" name="Albert-Einstein-Straße" priority="3" type="highway.residential">
        <lane id="-5198585#1_0" index="0" disallow="tram rail_urban rail rail_electric ship" speed="13.89" length="59.93" shape="753.59,261.78 717.41,230.25"/>
    </edge>
    <edge id="-5198585#2" from="36268376" to="36268375" name="Albert-Einstein-Straße" priority="3" type="highway.residential">
        <lane id="-5198585#2_0" index="0" disallow="tram rail_urban rail rail_electric ship" speed="13.89" length="173.70" shape="884.68,375.82 764.45,271.24"/>
    </edge>
    <edge id="-5198585#3" from="294829798" to="36268376" name="Albert-Einstein-Straße" priority="3" type="highway.residential">
        <lane id="-5198585#3_0" index="0" disallow="tram rail_urban rail rail_electric ship" speed="13.89" length="41.88" shape="918.27,404.97 895.66,385.36"/>
    </edge>
    <edge id="-5198585#4" from="36268431" to="294829798" name="Albert-Einstein-Straße" priority="3" type="highway.residential">
        <lane id="-5198585#4_0" index="0" disallow="tram rail_urban rail rail_electric ship" speed="13.89" length="50.17" shape="954.20,436.15 925.37,411.13"/>
    </edge>
    <edge id="-5198585#5" from="36268378" to="36268431" name="Albert-Einstein-Straße" priority="3" type="highway.residential">
        <lane id="-5198585#5_0" index="0" disallow="tram rail_urban rail rail_electric ship" speed="13.89" length="57.71" shape="996.62,475.29 964.79,445.66"/>
    </edge>
    <edge id="-5198585#6" from="283720461" to="36268378" name="Albert-Einstein-Straße" priority="3" type="highway.residential">
        <lane id="-5198585#6_0" index="0" disallow="tram rail_urban rail rail_electric ship" speed="13.89" length="24.18" shape="1018.44,494.03 1007.35,484.76"/>
    </edge>
    <edge id="-5198585#7" from="283719736" to="283720461" name="Albert-Einstein-Straße" priority="3" type="highway.residential">
        <lane id="-5198585#7_0" index="0" disallow="tram rail_urban rail rail_electric ship" speed="13.89" length="41.03" shape="1048.36,519.03 1022.28,497.24"/>
    </edge>
    <edge id="-5198585#8" from="36268381" to="283719736" name="Albert-Einstein-Straße" priority="3" type="highway.residential" shape="1265.24,717.69 1160.43,614.99 1100.96,560.89 1053.02,520.83">
        <lane id="-5198585#8_0" index="0" disallow="tram rail_urban rail rail_electric ship" speed="13.89" length="289.61" shape="1264.12,718.83 1159.33,616.16 1099.90,562.09 1053.85,523.61"/>
    </edge>
    <edge id="-5198586#0" from="36268406" to="36268415" name="Magnusstraße" priority="3" type="highway.residential">
        <lane id="-5198586#0_0" index="0" disallow="tram rail_urban rail rail_electric ship" speed="13.89" length="75.05" shape="824.78,462.29 783.43,508.65"/>
    </edge>
    <edge id="-5198586#1" from="36268376" to="36268406" name="Magnusstraße" priority="3" type="highway.residential">
        <lane id="-5198586#1_0" index="0" disallow="tram rail_urban rail rail_electric ship" speed="13.89" length="99.00" shape="887.81,386.03 834.27,451.20"/>
    </edge>
    <edge id="-5198586#2" from="36268417" to="36268376" name="Magnusstraße" priority="3" type="highway.residential">
        <lane id="-5198586#2_0" index="0" disallow="tram rail_urban rail rail_electric ship" speed="13.89" length="145.74" shape="981.48,274.42 897.09,374.85"/>
    </edge>
    <edge id="-5198586#3" from="36268416" to="36268417" name="Magnusstraße" priority="3" type="highway.residential">
        <lane id="-5198586#3_0" index="0" disallow="tram rail_urban rail rail_electric ship" speed="13.89" length="108.62" shape="1051.59,191.46 990.77,263.41"/>
    </edge>
    <edge id="-5198586#4" from="261636677" to="36268416" name="Magnusstraße" priority="3" type="highway.residential" shape="1119.89,114.18 1103.27,127.59 1055.08,184.85">
        <lane id="-5198586#4_0" index="0" disallow="tram rail_urban rail rail_electric ship" speed="13.89" length="96.20" shape="1119.46,116.58 1104.39,128.73 1060.88,180.45"/>
    </edge>
    <edge id="-5198587" from="36268392" to="36268431" name="Gustav-Kirchhoff-Straße" priority="3" type="highway.residential">
        <lane id="-5198587_0" index="0" disallow="tram rail_urban rail rail_electric ship" speed="13.89" length="144.20" shape="1049.62,335.54 966.61,435.14"/>
    </edge>
    <edge id="-5198588#0" from="36268392" to="36268417" name="Max-Planck-Straße" priority="3" type="highway.residential">
        <lane id="-5198588#0_0" index="0" disallow="tram rail_urban rail rail_electric ship" speed="13.89" length="91.51" shape="1046.71,325.39 989.33,273.87"/>
    </edge>
    <edge id="-5198588#1" from="36268391" to="36268392" name="Max-Planck-Straße" priority="3" type="highway.residential">
        <lane id="-5198588#1_0" index="0" disallow="tram rail_urban rail rail_electric ship" speed="13.89" length="186.58" shape="1192.53,452.86 1057.48,334.92"/>
    </edge>
    <edge id="-5198596#0" from="294829881" to="36268403" name="Kekuléstraße" priority="3" type="highway.residential">
        <lane id="-5198596#0_0" index="0" disallow="tram rail_urban rail rail_electric ship" speed="13.89" length="59.17" shape="896.86,513.14 932.57,544.10"/>
    </edge>
    <edge id="-5198596#1" from="294829385" to="294829881" name="Kekuléstraße" priority="3" type="highway.residential">
        <lane id="-5198596#1_0" index="0" disallow="tram rail_urban rail rail_electric ship" speed="13.89" length="44.20" shape="863.44,484.17 889.76,506.99"/>
    </edge>
    <edge id="-5198596#2" from="36268406" to="294829385" name="Kekuléstraße" priority="3" type="highway.residential">
        <lane id="-5198596#2_0" index="0" disallow="tram rail_urban rail rail_electric ship" speed="13.89" length="40.38" shape="834.81,459.35 856.34,478.01"/>
    </edge>
    <edge id="-5198596#3" from="36268408" to="36268406" name="Kekuléstraße" priority="3" type="highway.residential">
        <lane id="-5198596#3_0" index="0" disallow="tram rail_urban rail rail_electric ship" speed="13.89" length="140.08" shape="727.76,362.18 823.99,449.73"/>
    </edge>
    <edge id="-5198596#4" from="36268411" to="36268408" name="Kekuléstraße" priority="3" type="highway.residential">
        <lane id="-5198596#4_0" index="0" disallow="tram rail_urban rail rail_electric ship" speed="13.89" length="39.71" shape="700.66,340.04 723.76,358.74"/>
    </edge>
    <edge id="-5198597#0" from="36268411" to="36268375" name="Rutherfordstraße" priority="3" type="highway.residential">
        <lane id="-5198597#0_0" index="0" disallow="tram rail_urban rail rail_electric ship" speed="13.89" length="97.29" shape="697.77,330.08 754.00,269.64"/>
    </edge>
    <edge id="-5198597#1" from="56231597" to="36268411" name="Rutherfordstraße" priority="3" type="highway.residential" shape="633.67,383.18 677.75,340.35 693.88,336.61">
        <lane id="-5198597#1_0" index="0" disallow="tram rail_urban rail rail_electric ship" speed="13.89" length="78.02" shape="635.79,378.88 676.95,338.89 688.10,336.31"/>
    </edge>
    <edge id="-5198597#2" from="56231598" to="56231597" name="Rutherfordstraße" priority="3" type="highway.residential" shape="615.54,417.63 620.59,408.02 633.67,383.18">
        <lane id="-5198597#2_0" index="0" disallow="tram rail_urban rail rail_electric ship" speed="13.89" length="38.93" shape="616.95,411.51 619.18,407.28 630.41,385.95"/>
    </edge>
    <edge id="-5784968#0" from="283721348" to="36268378" name="Gottfried-Leibniz-Straße" priority="3" type="highway.residential">
        <lane id="-5784968#0_0" index="0" disallow="tram rail_urban rail rail_electric ship" speed="13.89" length="7.53" shape="997.13,482.96 997.26,482.81"/>
    </edge>
    <edge id="-5784968#1" from="36268403" to="283721348" name="Gottfried-Leibniz-Straße" priority="3" type="highway.residential">
        <lane id="-5784968#1_0" index="0" disallow="tram rail_urban rail rail_electric ship" speed="13.89" length="89.42" shape="940.63,543.75 993.96,486.37"/>
    </edge>
    <edge id="-5784968#2" from="283719904" to="36268403" name="Gottfried-Leibniz-Straße" priority="3" type="highway.residential">
        <lane id="-5784968#2_0" index="0" disallow="tram rail_urban rail rail_electric ship" speed="13.89" length="6.46" shape="933.24,551.87 933.37,551.72"/>
    </edge>
    <edge id="-5784968#3" from="38920778" to="283719904" name="Gottfried-Leibniz-Straße" priority="3" type="highway.residential">
        <lane id="-5784968#3_0" index="0" disallow="tram rail_urban rail rail_electric ship" speed="13.89" length="51.12" shape="906.22,586.59 930.72,554.64"/>
    </edge>
    <edge id="-5784968#4" from="306982585" to="38920778" name="Gottfried-Leibniz-Straße" priority="3" type="highway.residential">
        <lane id="-5784968#4_0" index="0" disallow="tram rail_urban rail rail_electric ship" speed="13.89" length="9.89" shape="896.47,598.75 898.69,596.07"/>
    </edge>
    <edge id="-5784968#5" from="36268398" to="306982585" name="Gottfried-Leibniz-Straße" priority="3" type="highway.residential">
        <lane id="-5784968#5_0" index="0" disallow="tram rail_urban rail rail_electric ship" speed="13.89" length="8.19" shape="893.37,601.85 896.37,598.87"/>
    </edge>
    <edge id="-6137233#0" from="38919880" to="38919927" name="Ludwig-Boltzmann-Straße" priority="3" type="highway.residential">
        <lane id="-6137233#0_0" index="0" disallow="tram rail_urban rail rail_electric ship" speed="13.89" length="42.56" shape="332.42,454.61 297.07,447.58"/>
    </edge>
    <edge id="-6137233#1" from="283018845" to="38919880" name="Ludwig-Boltzmann-Straße" priority="3" type="highway.residential">
        <lane id="-6137233#1_0" index="0" disallow="tram rail_urban rail rail_electric ship" speed="13.89" length="32.64" shape="364.36,462.22 346.77,457.85"/>
    </edge>
    <edge id="-6137233#2" from="283018932" to="283018845" name="Ludwig-Boltzmann-Straße" priority="3" type="highway.residential">
        <lane id="-6137233#2_0" index="0" disallow="tram rail_urban rail rail_electric ship" speed="13.89" length="45.75" shape="409.43,473.42 373.48,464.49"/>
    </edge>
    <edge id="-6137233#3" from="283018933" to="283018932" name="Ludwig-Boltzmann-Straße" priority="3" type="highway.residential" shape="537.36,508.91 496.24,493.33 413.88,472.88">
        <lane id="-6137233#3_0" index="0" disallow="tram rail_urban rail rail_electric ship" speed="13.89" length="128.84" shape="534.38,509.49 495.76,494.86 414.50,474.68"/>
    </edge>
    <edge id="-6137233#4" from="38919712" to="283018933" name="Ludwig-Boltzmann-Straße" priority="3" type="highway.residential">
        <lane id="-6137233#4_0" index="0" disallow="tram rail_urban rail rail_electric ship" speed="13.89" length="86.55" shape="611.95,538.90 539.05,511.27"/>
    </edge>
    <edge id="-6137239#0" from="38919854" to="38919880" name="Carl-Scheele-Straße" priority="3" type="highway.residential" shape="387.44,504.33 348.84,478.16 339.60,466.07 339.13,454.31">
        <lane id="-6137239#0_0" index="0" disallow="tram rail_urban rail rail_electric ship" speed="13.89" length="73.62" shape="384.74,504.43 347.72,479.33 338.02,466.64 337.86,462.63"/>
    </edge>
    <edge id="-6137239#1" from="38919841" to="38919854" name="Carl-Scheele-Straße" priority="3" type="highway.residential">
        <lane id="-6137239#1_0" index="0" disallow="tram rail_urban rail rail_electric ship" speed="13.89" length="128.02" shape="499.10,561.22 389.70,507.23"/>
    </edge>
    <edge id="-6137239#2" from="38919808" to="38919841" name="Carl-Scheele-Straße" priority="3" type="highway.residential" shape="604.30,563.25 524.58,565.99 511.70,563.93 502.24,560.98">
        <lane id="-6137239#2_0" index="0" disallow="tram rail_urban rail rail_electric ship" speed="13.89" length="102.72" shape="596.91,565.11 524.48,567.59 511.34,565.49 504.44,563.34"/>
    </edge>
    <edge id="-6137239#3" from="38919652" to="38919808" name="Carl-Scheele-Straße" priority="3" type="highway.residential">
        <lane id="-6137239#3_0" index="0" disallow="tram rail_urban rail rail_electric ship" speed="13.89" length="12.52" shape="611.53,564.01 611.34,564.03"/>
    </edge>
    <edge id="-6137239#4" from="38919605" to="38919652" name="Carl-Scheele-Straße" priority="3" type="highway.residential" shape="782.81,575.88 770.89,563.89 760.86,558.85 750.90,557.31 616.73,561.79">
        <lane id="-6137239#4_0" index="0" disallow="tram rail_urban rail rail_electric ship" speed="13.89" length="172.45" shape="781.67,577.00 769.94,565.20 760.36,560.40 750.81,558.91 624.53,563.13"/>
    </edge>
    <edge id="-7216737#0" from="36268421" to="94487954" name="Ernst-Ruska-Ufer" priority="12" type="highway.primary" shape="1144.91,50.46 1508.96,10.80 1605.67,0.69 1640.10,0.00 1680.43,2.68 1696.54,5.94 1720.58,11.27 1737.68,19.68">
        <lane id="-7216737#0_0" index="0" disallow="tram rail_urban rail rail_electric ship" speed="27.78" length="598.41" shape="1149.43,45.14 1508.45,6.03 1605.37,-4.10 1640.21,-4.80 1681.07,-2.09 1697.53,1.24 1722.18,6.71 1739.80,15.37"/>
        <lane id="-7216737#0_1" index="1" disallow="tram rail_urban rail rail_electric ship" speed="27.78" length="598.41" shape="1149.78,48.32 1508.79,9.21 1605.57,-0.90 1640.13,-1.60 1680.64,1.09 1696.87,4.37 1721.11,9.75 1738.38,18.24"/>
    </edge>
    <edge id="-7216737#1" from="261636678" to="36268421" name="Ernst-Ruska-Ufer" priority="12" type="highway.primary">
        <lane id="-7216737#1_0" index="0" disallow="tram rail_urban rail rail_electric ship" speed="27.78" length="29.87" shape="1120.12,47.86 1138.90,46.18"/>
        <lane id="-7216737#1_1" index="1" disallow="tram rail_urban rail rail_electric ship" speed="27.78" length="29.87" shape="1120.40,51.04 1139.18,49.36"/>
    </edge>
    <edge id="-7216737#2" from="36268369" to="261636678" name="Ernst-Ruska-Ufer" priority="12" type="highway.primary" shape="641.03,106.11 772.54,84.79 932.74,66.99 1044.61,56.56 1115.15,53.12">
        <lane id="-7216737#2_0" index="0" disallow="tram rail_urban rail rail_electric ship" speed="27.78" length="477.39" shape="646.97,100.28 771.90,80.04 932.25,62.21 1044.27,51.77 1109.62,48.58"/>
        <lane id="-7216737#2_1" index="1" disallow="tram rail_urban rail rail_electric ship" speed="27.78" length="477.39" shape="647.48,103.44 772.33,83.21 932.57,65.40 1044.50,54.97 1109.78,51.78"/>
    </edge>
    <edge id="-7216737#3" from="32266935" to="36268369" name="Ernst-Ruska-Ufer" priority="12" type="highway.primary">
        <lane id="-7216737#3_0" index="0" disallow="tram rail_urban rail rail_electric ship" speed="27.78" length="162.74" shape="485.75,115.58 633.55,101.98"/>
        <lane id="-7216737#3_1" index="1" disallow="tram rail_urban rail rail_electric ship" speed="27.78" length="162.74" shape="486.04,118.77 633.84,105.16"/>
    </edge>
    <edge id="-7727483#0" from="294169342" to="38920501" name="Wegedornstraße" priority="10" type="highway.tertiary">
        <lane id="-7727483#0_0" index="0" disallow="tram rail_urban rail rail_electric ship" speed="22.22" length="4.46" shape="496.86,309.53 496.88,309.73"/>
    </edge>
    <edge id="-7727483#1" from="261647692" to="294169342" name="Wegedornstraße" priority="10" type="highway.tertiary">
        <lane id="-7727483#1_0" index="0" disallow="tram rail_urban rail rail_electric ship" speed="22.22" length="26.56" shape="494.40,280.95 496.27,302.68"/>
    </edge>
    <edge id="-7727483#2" from="261647702" to="261647692" name="Wegedornstraße" priority="10" type="highway.tertiary" shape="482.98,167.40 484.69,187.19 488.69,233.50 492.80,281.09">
        <lane id="-7727483#2_0" index="0" disallow="tram rail_urban rail rail_electric ship" speed="22.22" length="114.12" shape="484.58,167.26 486.29,187.05 490.29,233.36 494.40,280.95"/>
    </edge>
    <edge id="-7727483#3" from="32266935" to="261647702" name="Wegedornstraße" priority="10" type="highway.tertiary">
        <lane id="-7727483#3_0" index="0" disallow="tram rail_urban rail rail_electric ship" speed="22.22" length="46.54" shape="481.48,131.37 484.58,167.26"/>
    </edge>
    <edge id="-7730464" from="56231598" to="56242441" priority="10" type="highway.tertiary">
        <lane id="-7730464_0" index="0" disallow="tram rail_urban rail rail_electric ship" speed="22.22" length="10.25" shape="616.87,422.73 616.86,422.93"/>
    </edge>
    <edge id="20430080" from="57343359" to="59993001" name="Rudower Chaussee" priority="10" type="highway.tertiary" spreadType="center" shape="0.00,348.44 4.55,342.53 12.54,333.63 32.95,332.62 190.22,343.97 304.73,350.90 387.65,360.32 486.97,382.40">
        <lane id="20430080_0" index="0" disallow="tram rail_urban rail rail_electric ship" speed="22.22" length="497.45" shape="1.94,345.92 4.55,342.53 12.54,333.63 32.95,332.62 190.22,343.97 304.73,350.90 387.65,360.32 481.46,381.17"/>
    </edge>
    <edge id="22917251" from="32266938" to="32266936" name="Teltowkanalbrücke" priority="10" type="highway.tertiary">
        <lane id="22917251_0" index="0" disallow="tram rail_urban rail rail_electric ship" speed="22.22" length="58.42" shape="475.99,104.99 471.17,49.14"/>
    </edge>
    <edge id="24152812#0" from="36268421" to="261636677" name="Havestadtplatz" priority="3" type="highway.residential" spreadType="center" shape="1144.91,50.46 1148.46,112.43 1119.89,114.18">
        <lane id="24152812#0_0" index="0" disallow="tram rail_urban rail rail_electric ship" speed="13.89" length="90.69" shape="1145.49,60.70 1148.46,112.43 1125.26,113.85"/>
    </edge>
    <edge id="24152812#1" from="261636677" to="261636678" name="Havestadtplatz" priority="3" type="highway.residential" spreadType="center">