<?xml version="1.0" encoding="UTF-8"?>

<!-- generated on Thu Apr 18 00:13:39 2019 by Eclipse SUMO netconvert Version v1_2_0+0017-2a947141e5
This data file and the accompanying materials
are made available under the terms of the Eclipse Public License v2.0
which accompanies this distribution, and is available at
http://www.eclipse.org/legal/epl-v20.html
SPDX-License-Identifier: EPL-2.0
<configuration xmlns:xsi="http://www.w3.org/2001/XMLSchema-instance" xsi:noNamespaceSchemaLocation="http://sumo.dlr.de/xsd/netconvertConfiguration.xsd">

    <input>
        <osm-files value="osm.xml"/>
    </input>

    <output>
        <write-license value="true"/>
        <output-file value="net.net.xml"/>
        <plain-output-prefix value="plain"/>
        <output.street-names value="true"/>
    </output>

    <projection>
        <proj.utm value="true"/>
        <proj.plain-geo value="true"/>
    </projection>

    <tls_building>
        <tls.red.time value="10"/>
    </tls_building>

    <junctions>
        <no-internal-links value="true"/>
    </junctions>

    <report>
        <verbose value="true"/>
    </report>

</configuration>
-->

<connections version="1.1" xmlns:xsi="http://www.w3.org/2001/XMLSchema-instance" xsi:noNamespaceSchemaLocation="http://sumo.dlr.de/xsd/connections_file.xsd">
    <connection from="-22917251" to="-24214694" fromLane="0" toLane="0"/>
    <connection from="-22917251" to="-25951490" fromLane="0" toLane="0"/>
    <connection from="-22917251" to="22917251" fromLane="0" toLane="0"/>

    <connection from="-24214693#0" to="24214694" fromLane="0" toLane="0"/>
    <connection from="-24214693#0" to="-7216737#3" fromLane="0" toLane="0"/>
    <connection from="-24214693#0" to="-7216737#3" fromLane="1" toLane="1"/>
    <connection from="-24214693#0" to="-7727483#3" fromLane="1" toLane="0"/>
    <connection from="-24214693#0" to="24214693#0" fromLane="1" toLane="1"/>

    <connection from="-24214693#1" to="-24214693#0" fromLane="0" toLane="0"/>
    <connection from="-24214693#1" to="-24214693#0" fromLane="1" toLane="1"/>

    <connection from="-24214694" to="-7216737#3" fromLane="0" toLane="0"/>
    <connection from="-24214694" to="-7727483#3" fromLane="0" toLane="0"/>
    <connection from="-24214694" to="24214693#0" fromLane="0" toLane="1"/>
    <connection from="-24214694" to="24214694" fromLane="0" toLane="0"/>

    <connection from="-25951490" to="25951490" fromLane="0" toLane="0"/>

    <connection from="-26816413#0" to="-5198597#1" fromLane="0" toLane="0"/>
    <connection from="-26816413#0" to="5198597#2" fromLane="0" toLane="0"/>
    <connection from="-26816413#0" to="26816413#0" fromLane="0" toLane="0"/>

    <connection from="-26816413#1" to="-26816413#0" fromLane="0" toLane="0"/>
    <connection from="-26816413#1" to="26816413#1" fromLane="0" toLane="0"/>

    <connection from="-26816553" to="-26816413#1" fromLane="0" toLane="0"/>
    <connection from="-26816553" to="26816541" fromLane="0" toLane="0"/>
    <connection from="-26816553" to="26816590#0" fromLane="0" toLane="0"/>
    <connection from="-26816553" to="26816553" fromLane="0" toLane="0"/>

    <connection from="-26816590#0" to="26816553" fromLane="0" toLane="0"/>
    <connection from="-26816590#0" to="-26816413#1" fromLane="0" toLane="0"/>
    <connection from="-26816590#0" to="26816541" fromLane="0" toLane="0"/>
    <connection from="-26816590#0" to="26816590#0" fromLane="0" toLane="0"/>

    <connection from="-26816590#1" to="26816627" fromLane="0" toLane="0"/>
    <connection from="-26816590#1" to="-26816590#0" fromLane="0" toLane="0"/>
    <connection from="-26816590#1" to="26816590#1" fromLane="0" toLane="0"/>

    <connection from="-26816590#2" to="26843133#0" fromLane="0" toLane="0"/>
    <connection from="-26816590#2" to="-26816590#1" fromLane="0" toLane="0"/>
    <connection from="-26816590#2" to="26816590#2" fromLane="0" toLane="0"/>

    <connection from="-26816627" to="-26816590#0" fromLane="0" toLane="0"/>
    <connection from="-26816627" to="26816590#1" fromLane="0" toLane="0"/>
    <connection from="-26816627" to="26816627" fromLane="0" toLane="0"/>

    <connection from="-26843019" to="-5198596#1" fromLane="0" toLane="0"/>
    <connection from="-26843019" to="5198596#2" fromLane="0" toLane="0"/>
    <connection from="-26843019" to="26843019" fromLane="0" toLane="0"/>

    <connection from="-26843038#0" to="-5198596#0" fromLane="0" toLane="0"/>
    <connection from="-26843038#0" to="5198596#1" fromLane="0" toLane="0"/>
    <connection from="-26843038#0" to="26843038#0" fromLane="0" toLane="0"/>

    <connection from="-26843038#1" to="-26843038#2" fromLane="0" toLane="0"/>
    <connection from="-26843038#1" to="-26843038#0" fromLane="0" toLane="0"/>
    <connection from="-26843038#1" to="26843038#1" fromLane="0" toLane="0"/>

    <connection from="-26843038#2" to="-26843038#1" fromLane="0" toLane="0"/>

    <connection from="-26843133#0" to="-26816590#1" fromLane="0" toLane="0"/>
    <connection from="-26843133#0" to="26816590#2" fromLane="0" toLane="0"/>
    <connection from="-26843133#0" to="26843133#0" fromLane="0" toLane="0"/>

    <connection from="-26843133#1" to="-26843133#0" fromLane="0" toLane="0"/>
    <connection from="-26843133#1" to="-26843133#2" fromLane="0" toLane="0"/>
    <connection from="-26843133#1" to="26843133#1" fromLane="0" toLane="0"/>

    <connection from="-26843133#2" to="-26843133#1" fromLane="0" toLane="0"/>

    <connection from="-5198584" to="-5198586#3" fromLane="0" toLane="0"/>
    <connection from="-5198584" to="5198586#4" fromLane="0" toLane="0"/>
    <connection from="-5198584" to="5198584" fromLane="0" toLane="0"/>

    <connection from="-5198585#0" to="7216737#3" fromLane="0" toLane="0"/>
    <connection from="-5198585#0" to="-7216737#2" fromLane="0" toLane="1"/>
    <connection from="-5198585#0" to="5198585#0" fromLane="0" toLane="0"/>

    <connection from="-5198585#1" to="-26816553" fromLane="0" toLane="0"/>
    <connection from="-5198585#1" to="-5198585#0" fromLane="0" toLane="0"/>
    <connection from="-5198585#1" to="5198585#1" fromLane="0" toLane="0"/>

    <connection from="-5198585#2" to="5198597#0" fromLane="0" toLane="0"/>
    <connection from="-5198585#2" to="-5198585#1" fromLane="0" toLane="0"/>
    <connection from="-5198585#2" to="5198585#2" fromLane="0" toLane="0"/>

    <connection from="-5198585#3" to="-5198586#1" fromLane="0" toLane="0"/>
    <connection from="-5198585#3" to="-5198585#2" fromLane="0" toLane="0"/>
    <connection from="-5198585#3" to="5198586#2" fromLane="0" toLane="0"/>
    <connection from="-5198585#3" to="5198585#3" fromLane="0" toLane="0"/>

    <connection from="-5198585#4" to="-26843019" fromLane="0" toLane="0"/>
    <connection from="-5198585#4" to="-5198585#3" fromLane="0" toLane="0"/>
    <connection from="-5198585#4" to="5198585#4" fromLane="0" toLane="0"/>

    <connection from="-5198585#5" to="-5198585#4" fromLane="0" toLane="0"/>
    <connection from="-5198585#5" to="5198587" fromLane="0" toLane="0"/>
    <connection from="-5198585#5" to="5198585#5" fromLane="0" toLane="0"/>

    <connection from="-5198585#6" to="5784968#0" fromLane="0" toLane="0"/>
    <connection from="-5198585#6" to="-5198585#5" fromLane="0" toLane="0"/>
    <connection from="-5198585#6" to="5198585#6" fromLane="0" toLane="0"/>

    <connection from="-5198585#7" to="-5198585#6" fromLane="0" toLane="0"/>
    <connection from="-5198585#7" to="5198585#7" fromLane="0" toLane="0"/>

    <connection from="-5198585#8" to="-5198585#7" fromLane="0" toLane="0"/>
    <connection from="-5198585#8" to="5198585#8" fromLane="0" toLane="0"/>

    <connection from="-5198586#0" to="27445015#3" fromLane="0" toLane="0"/>
    <connection from="-5198586#0" to="5198586#0" fromLane="0" toLane="0"/>

    <connection from="-5198586#1" to="-5198596#2" fromLane="0" toLane="0"/>
    <connection from="-5198586#1" to="-5198586#0" fromLane="0" toLane="0"/>
    <connection from="-5198586#1" to="5198596#3" fromLane="0" toLane="0"/>
    <connection from="-5198586#1" to="5198586#1" fromLane="0" toLane="0"/>

    <connection from="-5198586#2" to="5198585#3" fromLane="0" toLane="0"/>
    <connection from="-5198586#2" to="-5198586#1" fromLane="0" toLane="0"/>
    <connection from="-5198586#2" to="-5198585#2" fromLane="0" toLane="0"/>
    <connection from="-5198586#2" to="5198586#2" fromLane="0" toLane="0"/>

    <connection from="-5198586#3" to="5198588#0" fromLane="0" toLane="0"/>
    <connection from="-5198586#3" to="-5198586#2" fromLane="0" toLane="0"/>
    <connection from="-5198586#3" to="5198586#3" fromLane="0" toLane="0"/>

    <connection from="-5198586#4" to="5198584" fromLane="0" toLane="0"/>
    <connection from="-5198586#4" to="-5198586#3" fromLane="0" toLane="0"/>
    <connection from="-5198586#4" to="5198586#4" fromLane="0" toLane="0"/>

    <connection from="-5198587" to="5198585#5" fromLane="0" toLane="0"/>
    <connection from="-5198587" to="-5198585#4" fromLane="0" toLane="0"/>
    <connection from="-5198587" to="5198587" fromLane="0" toLane="0"/>

    <connection from="-5198588#0" to="-5198586#2" fromLane="0" toLane="0"/>
    <connection from="-5198588#0" to="5198586#3" fromLane="0" toLane="0"/>
    <connection from="-5198588#0" to="5198588#0" fromLane="0" toLane="0"/>

    <connection from="-5198588#1" to="-5198587" fromLane="0" toLane="0"/>
    <connection from="-5198588#1" to="-5198588#0" fromLane="0" toLane="0"/>
    <connection from="-5198588#1" to="5198588#1" fromLane="0" toLane="0"/>

    <connection from="-5198596#0" to="-5784968#1" fromLane="0" toLane="0"/>
    <connection from="-5198596#0" to="5784968#2" fromLane="0" toLane="0"/>
    <connection from="-5198596#0" to="5198596#0" fromLane="0" toLane="0"/>

    <connection from="-5198596#1" to="26843038#0" fromLane="0" toLane="0"/>
    <connection from="-5198596#1" to="-5198596#0" fromLane="0" toLane="0"/>
    <connection from="-5198596#1" to="5198596#1" fromLane="0" toLane="0"/>

    <connection from="-5198596#2" to="26843019" fromLane="0" toLane="0"/>
    <connection from="-5198596#2" to="-5198596#1" fromLane="0" toLane="0"/>
    <connection from="-5198596#2" to="5198596#2" fromLane="0" toLane="0"/>

    <connection from="-5198596#3" to="5198586#1" fromLane="0" toLane="0"/>
    <connection from="-5198596#3" to="-5198596#2" fromLane="0" toLane="0"/>
    <connection from="-5198596#3" to="-5198586#0" fromLane="0" toLane="0"/>
    <connection from="-5198596#3" to="5198596#3" fromLane="0" toLane="0"/>

    <connection from="-5198596#4" to="-5198596#3" fromLane="0" toLane="0"/>
    <connection from="-5198596#4" to="5198596#4" fromLane="0" toLane="0"/>

    <connection from="-5198597#0" to="-5198585#1" fromLane="0" toLane="0"/>
    <connection from="-5198597#0" to="5198585#2" fromLane="0" toLane="0"/>
    <connection from="-5198597#0" to="5198597#0" fromLane="0" toLane="0"/>

    <connection from="-5198597#1" to="-5198597#0" fromLane="0" toLane="0"/>
    <connection from="-5198597#1" to="-5198596#4" fromLane="0" toLane="0"/>
    <connection from="-5198597#1" to="5198597#1" fromLane="0" toLane="0"/>

    <connection from="-5198597#2" to="26816413#0" fromLane="0" toLane="0"/>
    <connection from="-5198597#2" to="-5198597#1" fromLane="0" toLane="0"/>
    <connection from="-5198597#2" to="5198597#2" fromLane="0" toLane="0"/>

    <connection from="-5784968#0" to="-5198585#5" fromLane="0" toLane="0"/>
    <connection from="-5784968#0" to="5198585#6" fromLane="0" toLane="0"/>
    <connection from="-5784968#0" to="5784968#0" fromLane="0" toLane="0"/>

    <connection from="-5784968#1" to="-5784968#0" fromLane="0" toLane="0"/>
    <connection from="-5784968#1" to="5784968#1" fromLane="0" toLane="0"/>

    <connection from="-5784968#2" to="5198596#0" fromLane="0" toLane="0"/>
    <connection from="-5784968#2" to="-5784968#1" fromLane="0" toLane="0"/>
    <connection from="-5784968#2" to="5784968#2" fromLane="0" toLane="0"/>

    <connection from="-5784968#3" to="-5784968#2" fromLane="0" toLane="0"/>
    <connection from="-5784968#3" to="5784968#3" fromLane="0" toLane="0"/>

    <connection from="-5784968#4" to="-5784968#3" fromLane="0" toLane="0"/>
    <connection from="-5784968#4" to="27445015#4" fromLane="0" toLane="0"/>
    <connection from="-5784968#4" to="5784968#4" fromLane="0" toLane="0"/>

    <connection from="-5784968#5" to="-5784968#4" fromLane="0" toLane="0"/>

    <connection from="-6137233#0" to="6137233#0" fromLane="0" toLane="0"/>

    <connection from="-6137233#1" to="6137239#0" fromLane="0" toLane="0"/>
    <connection from="-6137233#1" to="-6137233#0" fromLane="0" toLane="0"/>
    <connection from="-6137233#1" to="6137233#1" fromLane="0" toLane="0"/>

    <connection from="-6137233#2" to="-6137233#1" fromLane="0" toLane="0"/>
    <connection from="-6137233#2" to="6137233#2" fromLane="0" toLane="0"/>

    <connection from="-6137233#3" to="-6137233#2" fromLane="0" toLane="0"/>
    <connection from="-6137233#3" to="6137233#3" fromLane="0" toLane="0"/>

    <connection from="-6137233#4" to="-6137233#3" fromLane="0" toLane="0"/>
    <connection from="-6137233#4" to="6137233#4" fromLane="0" toLane="0"/>

    <connection from="-6137239#0" to="-6137233#0" fromLane="0" toLane="0"/>
    <connection from="-6137239#0" to="6137233#1" fromLane="0" toLane="0"/>
    <connection from="-6137239#0" to="6137239#0" fromLane="0" toLane="0"/>

    <connection from="-6137239#1" to="-6137239#0" fromLane="0" toLane="0"/>
    <connection from="-6137239#1" to="6137239#1" fromLane="0" toLane="0"/>

    <connection from="-6137239#2" to="-6137239#1" fromLane="0" toLane="0"/>
    <connection from="-6137239#2" to="6137239#2" fromLane="0" toLane="0"/>

    <connection from="-6137239#3" to="-6137239#2" fromLane="0" toLane="0"/>
    <connection from="-6137239#3" to="5784950#1" fromLane="0" toLane="0"/>
    <connection from="-6137239#3" to="6137239#3" fromLane="0" toLane="0"/>

    <connection from="-6137239#4" to="5784947#1" fromLane="0" toLane="0"/>
    <connection from="-6137239#4" to="-6137239#3" fromLane="0" toLane="0"/>
    <connection from="-6137239#4" to="6137239#4" fromLane="0" toLane="0"/>

    <connection from="-7216737#0" to="7216737#0" fromLane="1" toLane="1"/>

    <connection from="-7216737#1" to="-7216737#0" fromLane="0" toLane="0"/>
    <connection from="-7216737#1" to="-7216737#0" fromLane="1" toLane="1"/>
    <connection from="-7216737#1" to="24152812#0" fromLane="1" toLane="0"/>
    <connection from="-7216737#1" to="7216737#1" fromLane="1" toLane="1"/>

    <connection from="-7216737#2" to="-7216737#1" fromLane="0" toLane="0"/>
    <connection from="-7216737#2" to="-7216737#1" fromLane="1" toLane="1"/>
    <connection from="-7216737#2" to="7216737#2" fromLane="1" toLane="1"/>

    <connection from="-7216737#3" to="-7216737#2" fromLane="0" toLane="0"/>
    <connection from="-7216737#3" to="-7216737#2" fromLane="1" toLane="1"/>
    <connection from="-7216737#3" to="5198585#0" fromLane="1" toLane="0"/>
    <connection from="-7216737#3" to="7216737#3" fromLane="1" toLane="1"/>

    <connection from="-7727483#0" to="7727482" fromLane="0" toLane="0"/>

    <connection from="-7727483#1" to="-26816590#2" fromLane="0" toLane="0"/>
    <connection from="-7727483#1" to="-7727483#0" fromLane="0" toLane="0"/>
    <connection from="-7727483#1" to="7727483#1" fromLane="0" toLane="0"/>

    <connection from="-7727483#2" to="-7727483#1" fromLane="0" toLane="0"/>

    <connection from="-7727483#3" to="-7727483#2" fromLane="0" toLane="0"/>

    <connection from="-7730464" to="27437972#4" fromLane="0" toLane="0"/>
    <connection from="-7730464" to="7730464" fromLane="0" toLane="0"/>

    <connection from="20430080" to="27441289" fromLane="0" toLane="0"/>
    <connection from="20430080" to="27441168" fromLane="0" toLane="0"/>

    <connection from="22917251" to="-22917251" fromLane="0" toLane="0"/>

    <connection from="24152812#0" to="-5198586#4" fromLane="0" toLane="0"/>
    <connection from="24152812#0" to="24152812#1" fromLane="0" toLane="0"/>

    <connection from="24152812#1" to="7216737#2" fromLane="0" toLane="0"/>
    <connection from="24152812#1" to="-7216737#1" fromLane="0" toLane="1"/>

    <connection from="24214693#0" to="24214693#1" fromLane="0" toLane="0"/>
    <connection from="24214693#0" to="24214693#1" fromLane="1" toLane="1"/>

    <connection from="24214693#1" to="-24214693#1" fromLane="1" toLane="1"/>

    <connection from="24214694" to="-25951490" fromLane="0" toLane="0"/>
    <connection from="24214694" to="22917251" fromLane="0" toLane="0"/>
    <connection from="24214694" to="-24214694" fromLane="0" toLane="0"/>

    <connection from="25951490" to="22917251" fromLane="0" toLane="0"/>
    <connection from="25951490" to="-24214694" fromLane="0" toLane="0"/>
    <connection from="25951490" to="-25951490" fromLane="0" toLane="0"/>

    <connection from="26816413#0" to="26816413#1" fromLane="0" toLane="0"/>
    <connection from="26816413#0" to="-26816413#0" fromLane="0" toLane="0"/>

    <connection from="26816413#1" to="26816541" fromLane="0" toLane="0"/>
    <connection from="26816413#1" to="26816590#0" fromLane="0" toLane="0"/>
    <connection from="26816413#1" to="26816553" fromLane="0" toLane="0"/>
    <connection from="26816413#1" to="-26816413#1" fromLane="0" toLane="0"/>

    <connection from="26816541" to="26816413#1" fromLane="0" toLane="0"/>
    <connection from="26816541" to="-26816413#0" fromLane="0" toLane="0"/>

    <connection from="26816553" to="-5198585#0" fromLane="0" toLane="0"/>
    <connection from="26816553" to="5198585#1" fromLane="0" toLane="0"/>
    <connection from="26816553" to="-26816553" fromLane="0" toLane="0"/>

    <connection from="26816590#0" to="26816590#1" fromLane="0" toLane="0"/>
    <connection from="26816590#0" to="26816627" fromLane="0" toLane="0"/>
    <connection from="26816590#0" to="-26816590#0" fromLane="0" toLane="0"/>

    <connection from="26816590#1" to="26816590#2" fromLane="0" toLane="0"/>
    <connection from="26816590#1" to="26843133#0" fromLane="0" toLane="0"/>
    <connection from="26816590#1" to="-26816590#1" fromLane="0" toLane="0"/>

    <connection from="26816590#2" to="-7727483#0" fromLane="0" toLane="0"/>
    <connection from="26816590#2" to="7727483#1" fromLane="0" toLane="0"/>
    <connection from="26816590#2" to="-26816590#2" fromLane="0" toLane="0"/>

    <connection from="26816627" to="-26816627" fromLane="0" toLane="0"/>

    <connection from="26843019" to="-5198585#3" fromLane="0" toLane="0"/>
    <connection from="26843019" to="5198585#4" fromLane="0" toLane="0"/>
    <connection from="26843019" to="-26843019" fromLane="0" toLane="0"/>

    <connection from="26843038#0" to="26843038#1" fromLane="0" toLane="0"/>
    <connection from="26843038#0" to="-26843038#2" fromLane="0" toLane="0"/>
    <connection from="26843038#0" to="-26843038#0" fromLane="0" toLane="0"/>

    <connection from="26843038#1" to="26843038#2" fromLane="0" toLane="0"/>

    <connection from="26843038#2" to="-26843038#0" fromLane="0" toLane="0"/>
    <connection from="26843038#2" to="26843038#1" fromLane="0" toLane="0"/>
    <connection from="26843038#2" to="-26843038#2" fromLane="0" toLane="0"/>

    <connection from="26843133#0" to="-26843133#2" fromLane="0" toLane="0"/>
    <connection from="26843133#0" to="26843133#1" fromLane="0" toLane="0"/>
    <connection from="26843133#0" to="-26843133#0" fromLane="0" toLane="0"/>

    <connection from="26843133#1" to="26843133#2" fromLane="0" toLane="0"/>

    <connection from="26843133#2" to="26843133#1" fromLane="0" toLane="0"/>
    <connection from="26843133#2" to="-26843133#0" fromLane="0" toLane="0"/>
    <connection from="26843133#2" to="-26843133#2" fromLane="0" toLane="0"/>

    <connection from="27437972#0" to="27437972#1" fromLane="0" toLane="0"/>
    <connection from="27437972#0" to="-5784968#5" fromLane="0" toLane="0"/>

    <connection from="27437972#1" to="5784947#0" fromLane="0" toLane="0"/>
    <connection from="27437972#1" to="27437972#2" fromLane="0" toLane="0"/>

    <connection from="27437972#2" to="27437972#3" fromLane="0" toLane="0"/>

    <connection from="27437972#3" to="27437972#4" fromLane="0" toLane="0"/>
    <connection from="27437972#3" to="7730464" fromLane="0" toLane="0"/>

    <connection from="27437972#4" to="27441189" fromLane="0" toLane="0"/>

    <connection from="27441168" to="27445015#0" fromLane="0" toLane="0"/>
    <connection from="27441168" to="27445003" fromLane="0" toLane="0"/>

    <connection from="27441189" to="27445000" fromLane="0" toLane="0"/>
    <connection from="27441189" to="6137245" fromLane="0" toLane="0"/>

    <connection from="27441289" to="7727483#0" fromLane="0" toLane="0"/>

    <connection from="27445000" to="20430080" fromLane="0" toLane="0"/>

    <connection from="27445003" to="27441189" fromLane="0" toLane="0"/>

    <connection from="27445015#0" to="-5198597#2" fromLane="0" toLane="0"/>
    <connection from="27445015#0" to="27445015#1" fromLane="0" toLane="0"/>
    <connection from="27445015#0" to="-7730464" fromLane="0" toLane="0"/>

    <connection from="27445015#1" to="27445015#2" fromLane="0" toLane="0"/>

    <connection from="27445015#2" to="5198586#0" fromLane="0" toLane="0"/>
    <connection from="27445015#2" to="27445015#3" fromLane="0" toLane="0"/>

    <connection from="27445015#3" to="-5784968#3" fromLane="0" toLane="0"/>
    <connection from="27445015#3" to="27445015#4" fromLane="0" toLane="0"/>
    <connection from="27445015#3" to="5784968#4" fromLane="0" toLane="0"/>

    <connection from="5198584" to="-5198584" fromLane="0" toLane="0"/>

    <connection from="5198585#0" to="5198585#1" fromLane="0" toLane="0"/>
    <connection from="5198585#0" to="-26816553" fromLane="0" toLane="0"/>
    <connection from="5198585#0" to="-5198585#0" fromLane="0" toLane="0"/>

    <connection from="5198585#1" to="5198585#2" fromLane="0" toLane="0"/>
    <connection from="5198585#1" to="5198597#0" fromLane="0" toLane="0"/>
    <connection from="5198585#1" to="-5198585#1" fromLane="0" toLane="0"/>

    <connection from="5198585#2" to="5198586#2" fromLane="0" toLane="0"/>
    <connection from="5198585#2" to="5198585#3" fromLane="0" toLane="0"/>
    <connection from="5198585#2" to="-5198586#1" fromLane="0" toLane="0"/>
    <connection from="5198585#2" to="-5198585#2" fromLane="0" toLane="0"/>

    <connection from="5198585#3" to="5198585#4" fromLane="0" toLane="0"/>
    <connection from="5198585#3" to="-26843019" fromLane="0" toLane="0"/>
    <connection from="5198585#3" to="-5198585#3" fromLane="0" toLane="0"/>

    <connection from="5198585#4" to="5198587" fromLane="0" toLane="0"/>
    <connection from="5198585#4" to="5198585#5" fromLane="0" toLane="0"/>
    <connection from="5198585#4" to="-5198585#4" fromLane="0" toLane="0"/>

    <connection from="5198585#5" to="5198585#6" fromLane="0" toLane="0"/>
    <connection from="5198585#5" to="5784968#0" fromLane="0" toLane="0"/>
    <connection from="5198585#5" to="-5198585#5" fromLane="0" toLane="0"/>

    <connection from="5198585#6" to="5198585#7" fromLane="0" toLane="0"/>
    <connection from="5198585#6" to="-5198585#6" fromLane="0" toLane="0"/>

    <connection from="5198585#7" to="5198585#8" fromLane="0" toLane="0"/>
    <connection from="5198585#7" to="-5198585#7" fromLane="0" toLane="0"/>

    <connection from="5198585#8" to="-5198585#8" fromLane="0" toLane="0"/>

    <connection from="5198586#0" to="5198596#3" fromLane="0" toLane="0"/>
    <connection from="5198586#0" to="5198586#1" fromLane="0" toLane="0"/>
    <connection from="5198586#0" to="-5198596#2" fromLane="0" toLane="0"/>
    <connection from="5198586#0" to="-5198586#0" fromLane="0" toLane="0"/>

    <connection from="5198586#1" to="-5198585#2" fromLane="0" toLane="0"/>
    <connection from="5198586#1" to="5198586#2" fromLane="0" toLane="0"/>
    <connection from="5198586#1" to="5198585#3" fromLane="0" toLane="0"/>
    <connection from="5198586#1" to="-5198586#1" fromLane="0" toLane="0"/>

    <connection from="5198586#2" to="5198586#3" fromLane="0" toLane="0"/>
    <connection from="5198586#2" to="5198588#0" fromLane="0" toLane="0"/>
    <connection from="5198586#2" to="-5198586#2" fromLane="0" toLane="0"/>

    <connection from="5198586#3" to="5198586#4" fromLane="0" toLane="0"/>
    <connection from="5198586#3" to="5198584" fromLane="0" toLane="0"/>
    <connection from="5198586#3" to="-5198586#3" fromLane="0" toLane="0"/>

    <connection from="5198586#4" to="24152812#1" fromLane="0" toLane="0"/>
    <connection from="5198586#4" to="-5198586#4" fromLane="0" toLane="0"/>

    <connection from="5198587" to="-5198588#0" fromLane="0" toLane="0"/>
    <connection from="5198587" to="5198588#1" fromLane="0" toLane="0"/>
    <connection from="5198587" to="-5198587" fromLane="0" toLane="0"/>

    <connection from="5198588#0" to="5198588#1" fromLane="0" toLane="0"/>
    <connection from="5198588#0" to="-5198587" fromLane="0" toLane="0"/>
    <connection from="5198588#0" to="-5198588#0" fromLane="0" toLane="0"/>

    <connection from="5198588#1" to="-5198588#1" fromLane="0" toLane="0"/>

    <connection from="5198596#0" to="5198596#1" fromLane="0" toLane="0"/>
    <connection from="5198596#0" to="26843038#0" fromLane="0" toLane="0"/>
    <connection from="5198596#0" to="-5198596#0" fromLane="0" toLane="0"/>

    <connection from="5198596#1" to="5198596#2" fromLane="0" toLane="0"/>
    <connection from="5198596#1" to="26843019" fromLane="0" toLane="0"/>
    <connection from="5198596#1" to="-5198596#1" fromLane="0" toLane="0"/>

    <connection from="5198596#2" to="-5198586#0" fromLane="0" toLane="0"/>
    <connection from="5198596#2" to="5198596#3" fromLane="0" toLane="0"/>
    <connection from="5198596#2" to="5198586#1" fromLane="0" toLane="0"/>
    <connection from="5198596#2" to="-5198596#2" fromLane="0" toLane="0"/>

    <connection from="5198596#3" to="5198596#4" fromLane="0" toLane="0"/>
    <connection from="5198596#3" to="-5198596#3" fromLane="0" toLane="0"/>

    <connection from="5198596#4" to="5198597#1" fromLane="0" toLane="0"/>
    <connection from="5198596#4" to="-5198597#0" fromLane="0" toLane="0"/>
    <connection from="5198596#4" to="-5198596#4" fromLane="0" toLane="0"/>

    <connection from="5198597#0" to="-5198596#4" fromLane="0" toLane="0"/>
    <connection from="5198597#0" to="5198597#1" fromLane="0" toLane="0"/>
    <connection from="5198597#0" to="-5198597#0" fromLane="0" toLane="0"/>

    <connection from="5198597#1" to="5198597#2" fromLane="0" toLane="0"/>
    <connection from="5198597#1" to="26816413#0" fromLane="0" toLane="0"/>
    <connection from="5198597#1" to="-5198597#1" fromLane="0" toLane="0"/>

    <connection from="5198597#2" to="27445015#1" fromLane="0" toLane="0"/>
    <connection from="5198597#2" to="-7730464" fromLane="0" toLane="0"/>
    <connection from="5198597#2" to="-5198597#2" fromLane="0" toLane="0"/>

    <connection from="5784947#0" to="6137239#4" fromLane="0" toLane="0"/>
    <connection from="5784947#0" to="5784947#1" fromLane="0" toLane="0"/>
    <connection from="5784947#0" to="-6137239#3" fromLane="0" toLane="0"/>

    <connection from="5784950#0" to="-6137239#2" fromLane="0" toLane="0"/>
    <connection from="5784950#0" to="5784950#1" fromLane="0" toLane="0"/>
    <connection from="5784950#0" to="6137239#3" fromLane="0" toLane="0"/>

    <connection from="5784950#1" to="5784950#2" fromLane="0" toLane="0"/>

    <connection from="5784950#2" to="-6137233#4" fromLane="0" toLane="0"/>
    <connection from="5784950#2" to="5784950#3" fromLane="0" toLane="0"/>

    <connection from="5784950#3" to="27437972#3" fromLane="0" toLane="0"/>

    <connection from="5784968#0" to="5784968#1" fromLane="0" toLane="0"/>
    <connection from="5784968#0" to="-5784968#0" fromLane="0" toLane="0"/>

    <connection from="5784968#1" to="5784968#2" fromLane="0" toLane="0"/>
    <connection from="5784968#1" to="5198596#0" fromLane="0" toLane="0"/>
    <connection from="5784968#1" to="-5784968#1" fromLane="0" toLane="0"/>

    <connection from="5784968#2" to="5784968#3" fromLane="0" toLane="0"/>
    <connection from="5784968#2" to="-5784968#2" fromLane="0" toLane="0"/>

    <connection from="5784968#3" to="27445015#4" fromLane="0" toLane="0"/>
    <connection from="5784968#3" to="5784968#4" fromLane="0" toLane="0"/>
    <connection from="5784968#3" to="-5784968#3" fromLane="0" toLane="0"/>

    <connection from="5784968#4" to="5784968#5" fromLane="0" toLane="0"/>

    <connection from="5784968#5" to="27437972#1" fromLane="0" toLane="0"/>
    <connection from="5784968#5" to="-5784968#5" fromLane="0" toLane="0"/>

    <connection from="6137233#0" to="6137233#1" fromLane="0" toLane="0"/>
    <connection from="6137233#0" to="6137239#0" fromLane="0" toLane="0"/>
    <connection from="6137233#0" to="-6137233#0" fromLane="0" toLane="0"/>

    <connection from="6137233#1" to="6137233#2" fromLane="0" toLane="0"/>
    <connection from="6137233#1" to="-6137233#1" fromLane="0" toLane="0"/>

    <connection from="6137233#2" to="6137233#3" fromLane="0" toLane="0"/>
    <connection from="6137233#2" to="-6137233#2" fromLane="0" toLane="0"/>

    <connection from="6137233#3" to="6137233#4" fromLane="0" toLane="0"/>
    <connection from="6137233#3" to="-6137233#3" fromLane="0" toLane="0"/>

    <connection from="6137233#4" to="5784950#3" fromLane="0" toLane="0"/>
    <connection from="6137233#4" to="-6137233#4" fromLane="0" toLane="0"/>

    <connection from="6137239#0" to="6137239#1" fromLane="0" toLane="0"/>
    <connection from="6137239#0" to="-6137239#0" fromLane="0" toLane="0"/>

    <connection from="6137239#1" to="6137239#2" fromLane="0" toLane="0"/>
    <connection from="6137239#1" to="-6137239#1" fromLane="0" toLane="0"/>

    <connection from="6137239#2" to="5784950#1" fromLane="0" toLane="0"/>
    <connection from="6137239#2" to="6137239#3" fromLane="0" toLane="0"/>
    <connection from="6137239#2" to="-6137239#2" fromLane="0" toLane="0"/>
