<routes xmlns:xsi="http://www.w3.org/2001/XMLSchema-instance" xsi:noNamespaceSchemaLocation="http://sumo.dlr.de/xsd/routes_file.xsd">
    <trip id="0" depart="0" from="beg" to="rend"/>
    <trip id="1" depart="0" from="beg" to="rend"/>
    <trip id="2" depart="0" from="beg" to="rend"/>
    <trip id="3" depart="0" from="beg" to="rend"/>
    <trip id="4" depart="0" from="beg" to="rend"/>
    <trip id="5" depart="0" from="beg" to="rend"/>
    <trip id="6" depart="0" from="beg" to="rend"/>
    <trip id="7" depart="0" from="beg" to="rend"/>
    <trip id="8" depart="0" from="beg" to="rend"/>
    <trip id="9" depart="0" from="beg" to="rend"/>
</routes>
