<?xml version="1.0" encoding="iso-8859-1"?>

<!--
// Copyright (C) 2011 Christoph Sommer <sommer@ccs-labs.org>
//
// Documentation for these modules is at http://veins.car2x.org/
//
// SPDX-License-Identifier: CC-BY-SA-2.0
//
// You can redistribute and/or modify this file
// under a
// Creative Commons Attribution-ShareAlike 2.0 Generic License.
//
// You should have received a copy of the license along with this
// work.  If not, see <http://creativecommons.org/licenses/by-sa/2.0/>.
-->

<!--
Based on map data Copyright (C) 2011 OpenStreetMap contributors <http://openstreetmap.org>
Licensed under the Creative Commons Attribution-ShareAlike 2.0 license <http://creativecommons.org/licenses/by-sa/2.0/>
-->

<!-- generated on Wed Nov 30 12:18:34 2011 by SUMO polyconvert Version 0.13.1
<?xml version="1.0" encoding="iso-8859-1"?>

<configuration xmlns:xsi="http://www.w3.org/2001/XMLSchema-instance" xsi:noNamespaceSchemaLocation="http://sumo.sf.net/xsd/polyconvertConfiguration.xsd">

    <input>
        <osm-files value="erlangen.osm"/>
        <osm.keep-full-type value="false"/>
        <type-file value="erlangen.polytypes.xml"/>
    </input>

    <output>
        <output-file value="erlangen.poly.xml"/>
    </output>

    <projection>
        <proj.utm value="true"/>
    </projection>

</configuration>
-->

<shapes>
    <poly id="112552150" type="building" color="1.00,0.00,0.00" fill="1" layer="4" shape="646449.74,5493167.41 646463.56,5493152.97 646486.15,5493174.48 646472.33,5493188.91 646449.74,5493167.41"/>
    <poly id="116904831" type="building" color="1.00,0.00,0.00" fill="1" layer="4" shape="646777.33,5493200.07 646749.03,5493228.32 646745.37,5493231.91 646720.44,5493206.53 646755.79,5493172.00 646780.41,5493197.08 646777.33,5493200.07"/>
    <poly id="133641469" type="building" color="1.00,0.00,0.00" fill="1" layer="4" shape="646791.75,5493244.67 646789.96,5493241.40 646787.08,5493239.09 646782.48,5493238.06 646779.09,5493238.79 646776.04,5493240.89 646773.94,5493244.21 646773.38,5493247.77 646773.96,5493250.67 646776.29,5493254.19 646779.64,5493256.24 646783.01,5493256.77 646786.97,5493255.79 646790.26,5493253.06 646792.04,5493248.85 646791.75,5493244.67"/>
    <poly id="133641470" type="building" color="1.00,0.00,0.00" fill="1" layer="4" shape="646811.66,5493235.04 646814.67,5493232.10 646843.56,5493261.52 646807.61,5493296.61 646779.02,5493267.49 646783.34,5493263.27 646811.66,5493235.04"/>
    <poly id="133641471" type="building" color="1.00,0.00,0.00" fill="1" layer="4" shape="646777.33,5493200.07 646796.66,5493219.76 646811.66,5493235.04 646783.34,5493263.27 646767.26,5493246.89 646762.93,5493251.11 646751.49,5493239.46 646755.82,5493235.24 646749.03,5493228.32 646777.33,5493200.07"/>
    <poly id="136977170" type="building" color="1.00,0.00,0.00" fill="1" layer="4" shape="646757.99,5493916.56 646757.61,5493908.02 646738.31,5493908.81 646738.72,5493917.33 646757.99,5493916.56"/>
    <poly id="136977173" type="building" color="1.00,0.00,0.00" fill="1" layer="4" shape="646812.59,5493813.74 646802.54,5493811.92 646786.41,5493806.07 646755.86,5493837.83 646755.47,5493858.68 646755.78,5493866.61 646757.61,5493908.02 646757.99,5493916.56 646769.34,5493920.91 646772.69,5493911.71 646787.42,5493912.11 646788.34,5493849.46 646801.12,5493835.87 646808.06,5493837.61 646812.59,5493813.74"/>
    <poly id="136977175" type="building" color="1.00,0.00,0.00" fill="1" layer="4" shape="646755.47,5493858.68 646735.93,5493859.67 646736.30,5493867.36 646755.78,5493866.61 646755.47,5493858.68"/>
    <poly id="138227075" type="building" color="1.00,0.00,0.00" fill="1" layer="4" shape="646412.48,5492995.58 646410.30,5492996.75 646408.65,5492998.58 646407.73,5493000.87 646407.65,5493003.34 646408.93,5493006.49 646410.70,5493008.22 646412.96,5493009.22 646415.43,5493009.40 646416.66,5493009.17 646418.88,5493008.09 646420.60,5493006.31 646421.62,5493004.06 646421.82,5493002.68 646421.51,5493000.23 646420.38,5492998.03 646418.56,5492996.36 646416.28,5492995.40 646413.81,5492995.28 646412.48,5492995.58"/>
    <poly id="138701361" type="building" color="1.00,0.00,0.00" fill="1" layer="4" shape="646748.26,5492943.63 646738.96,5492955.35 646744.87,5492961.04 646754.74,5492949.59 646748.26,5492943.63"/>
    <poly id="138701362" type="building" color="1.00,0.00,0.00" fill="1" layer="4" shape="646718.01,5492977.05 646710.50,5492984.52 646715.92,5492990.22 646723.36,5492982.19 646718.01,5492977.05"/>
    <poly id="23347603" type="building" color="1.00,0.00,0.00" fill="1" layer="4" shape="646654.80,5493283.50 646629.18,5493258.92 646617.14,5493271.40 646606.02,5493282.89 646631.60,5493307.52 646641.62,5493297.18 646654.80,5493283.50"/>
    <poly id="23347604" type="building" color="1.00,0.00,0.00" fill="1" layer="4" shape="646581.87,5493369.99 646589.44,5493377.18 646650.09,5493434.47 646656.85,5493440.82 646699.55,5493395.63 646693.23,5493390.24 646678.45,5493375.47 646642.26,5493340.06 646628.37,5493326.41 646625.88,5493323.86 646581.87,5493369.99"/>
    <poly id="23347605" type="building" color="1.00,0.00,0.00" fill="1" layer="4" shape="646637.91,5493138.53 646647.65,5493147.55 646652.65,5493152.26 646690.25,5493187.90 646692.06,5493189.61 646698.29,5493195.37 646733.34,5493157.74 646716.17,5493141.84 646706.92,5493151.77 646680.63,5493127.42 646690.78,5493116.53 646673.41,5493100.44 646637.91,5493138.53"/>
    <poly id="23347607" type="building" color="1.00,0.00,0.00" fill="1" layer="4" shape="646560.18,5493067.41 646586.10,5493040.64 646615.64,5493069.07 646621.98,5493075.18 646596.06,5493101.95 646560.18,5493067.41"/>
    <poly id="24668356" type="building" color="1.00,0.00,0.00" fill="1" layer="4" shape="646601.90,5493920.75 646605.00,5493920.83 646608.71,5493921.55 646611.78,5493922.87 646614.82,5493925.43 646617.21,5493928.59 646618.96,5493932.96 646619.38,5493940.41 646618.01,5493945.32 646615.39,5493950.21 646611.56,5493953.82 646606.55,5493955.55 646603.44,5493956.07 646599.71,5493955.97 646596.63,5493955.28 646593.56,5493953.95 646591.13,5493952.03 646589.27,5493948.12 646586.78,5493943.80 646582.60,5493943.91 646582.20,5493955.82 646575.84,5493955.56 646575.34,5493973.23 646583.61,5493973.39 646586.54,5494034.99 646566.61,5494037.55 646563.64,5493972.86 646570.76,5493973.01 646571.19,5493955.05 646557.51,5493954.58 646558.27,5493920.36 646583.43,5493921.07 646583.10,5493933.12 646586.68,5493933.12 646588.04,5493928.43 646591.86,5493924.81 646595.01,5493923.04 646598.16,5493921.27 646601.90,5493920.75"/>
    <poly id="24669114" type="building" color="1.00,0.00,0.00" fill="1" layer="4" shape="646634.72,5494069.44 646634.42,5494034.76 646671.68,5494033.91 646671.37,5494068.57 646634.72,5494069.44"/>
    <poly id="24669678" type="building" color="1.00,0.00,0.00" fill="1" layer="4" shape="646798.47,5494060.66 646797.81,5494038.97 646805.26,5494039.17 646805.91,5494060.86 646798.47,5494060.66"/>
    <poly id="24669681" type="building" color="1.00,0.00,0.00" fill="1" layer="4" shape="646562.15,5493886.97 646563.07,5493848.90 646604.61,5493849.77 646603.68,5493887.84 646562.15,5493886.97"/>
    <poly id="24750082" type="building" color="1.00,0.00,0.00" fill="1" layer="4" shape="646660.57,5494025.29 646660.75,5494027.75 646675.05,5494026.89 646675.07,5494024.90 646680.70,5494024.57 646680.48,5494009.70 646674.57,5494009.61 646673.43,5493971.76 646659.13,5493972.61 646660.26,5494010.78 646628.30,5494010.78 646628.50,5494026.26 646660.57,5494025.29"/>
    <poly id="25319149" type="building" color="1.00,0.00,0.00" fill="1" layer="4" shape="646489.85,5493289.39 646513.00,5493264.85 646537.00,5493287.35 646525.61,5493299.29 646513.86,5493311.89 646489.85,5493289.39"/>
    <poly id="25326619" type="building" color="1.00,0.00,0.00" fill="1" layer="4" shape="646380.54,5493189.41 646390.84,5493199.37 646424.74,5493164.52 646419.82,5493159.71 646414.44,5493154.55 646380.54,5493189.41"/>
    <poly id="25326621" type="building" color="1.00,0.00,0.00" fill="1" layer="4" shape="646409.15,5493219.10 646425.60,5493234.15 646470.61,5493275.33 646503.14,5493239.97 646498.80,5493235.97 646493.68,5493231.32 646473.56,5493253.19 646457.43,5493238.43 646477.65,5493216.45 646472.44,5493211.91 646467.61,5493207.25 646446.86,5493229.81 646439.06,5493222.67 646431.08,5493215.37 646451.94,5493192.70 646446.74,5493187.97 646441.89,5493183.51 646409.15,5493219.10"/>
    <poly id="25358913" type="building" color="1.00,0.00,0.00" fill="1" layer="4" shape="646525.05,5493217.30 646537.55,5493204.17 646551.33,5493189.67 646564.89,5493202.50 646573.31,5493210.60 646568.78,5493215.34 646573.84,5493220.13 646567.01,5493227.02 646552.16,5493242.93 646525.05,5493217.30"/>
    <poly id="25358914" type="building" color="1.00,0.00,0.00" fill="1" layer="4" shape="646564.89,5493202.50 646587.88,5493178.85 646607.12,5493197.43 646624.22,5493213.98 646601.29,5493237.54 646585.81,5493222.62 646584.26,5493221.14 646573.31,5493210.60 646564.89,5493202.50"/>
    <poly id="25359010" type="building" color="1.00,0.00,0.00" fill="1" layer="4" shape="646719.31,5493264.57 646705.92,5493278.57 646710.57,5493283.16 646714.14,5493286.72 646708.84,5493292.01 646741.36,5493324.44 646761.52,5493303.84 646771.34,5493293.98 646773.26,5493261.75 646762.93,5493251.11 646751.49,5493239.46 646722.71,5493267.64 646721.33,5493266.23 646719.31,5493264.57"/>
    <poly id="25359011" type="building" color="1.00,0.00,0.00" fill="1" layer="4" shape="646719.54,5493346.75 646756.19,5493382.40 646781.55,5493356.49 646770.54,5493345.77 646787.16,5493328.78 646761.52,5493303.84 646741.36,5493324.44 646737.38,5493328.51 646719.54,5493346.75"/>
    <poly id="25359012" type="building" color="1.00,0.00,0.00" fill="1" layer="4" shape="646719.31,5493264.57 646705.92,5493278.57 646693.87,5493291.05 646690.95,5493288.23 646666.66,5493265.04 646684.23,5493246.74 646692.00,5493238.61 646719.31,5493264.57"/>
    <poly id="25843734" type="building" color="1.00,0.00,0.00" fill="1" layer="4" shape="646345.90,5493140.16 646333.27,5493127.07 646337.96,5493122.57 646341.74,5493126.48 646345.44,5493122.92 646347.34,5493124.89 646354.98,5493117.57 646361.93,5493124.78 646353.73,5493132.59 646345.90,5493140.16"/>
    <poly id="26719084" type="building" color="1.00,0.00,0.00" fill="1" layer="4" shape="646449.73,5493096.57 646469.10,5493115.54 646501.60,5493082.53 646506.07,5493086.90 646511.32,5493092.05 646492.66,5493110.99 646529.34,5493146.90 646548.34,5493127.60 646551.29,5493130.49 646554.49,5493133.62 646523.02,5493165.59 646541.34,5493183.53 646589.32,5493134.81 646569.86,5493115.75 646559.14,5493126.63 646556.40,5493124.02 646553.52,5493121.13 646559.23,5493115.33 646522.49,5493079.36 646516.54,5493085.41 646512.27,5493081.18 646507.92,5493076.97 646516.81,5493067.94 646497.01,5493048.55 646449.73,5493096.57"/>
    <poly id="27930333" type="building" color="1.00,0.00,0.00" fill="1" layer="4" shape="645677.39,5493503.79 645674.63,5493536.73 645665.83,5493536.00 645659.30,5493535.46 645662.07,5493502.25 645667.18,5493502.67 645667.29,5493501.30 645670.45,5493501.56 645673.55,5493501.82 645677.39,5493503.79"/>
    <poly id="30372668" type="building" color="1.00,0.00,0.00" fill="1" layer="4" shape="646668.09,5493043.38 646661.09,5493036.65 646668.26,5493029.25 646669.09,5493030.06 646674.33,5493024.65 646657.93,5493008.94 646648.76,5493000.08 646641.58,5492993.13 646675.17,5492958.43 646678.89,5492954.58 646710.50,5492984.52 646711.84,5492986.29 646715.92,5492990.22 646678.66,5493028.71 646677.38,5493027.48 646672.12,5493032.91 646675.28,5493035.96 646668.09,5493043.38"/>
    <poly id="30372669" type="building" color="1.00,0.00,0.00" fill="1" layer="4" shape="646718.01,5492977.05 646723.36,5492982.19 646773.68,5493030.50 646794.62,5493008.81 646744.87,5492961.04 646738.96,5492955.35 646718.01,5492977.05"/>
    <poly id="30372670" type="building" color="1.00,0.00,0.00" fill="1" layer="4" shape="646709.52,5492908.00 646748.26,5492943.63 646754.74,5492949.59 646782.16,5492919.95 646802.50,5492938.67 646820.28,5492919.46 646800.04,5492900.84 646793.98,5492907.40 646760.32,5492876.44 646765.61,5492870.72 646753.94,5492859.99 646709.52,5492908.00"/>
    <poly id="30372671" type="building" color="1.00,0.00,0.00" fill="1" layer="4" shape="646550.80,5492911.85 646621.46,5492975.77 646683.21,5492907.89 646705.72,5492883.16 646710.37,5492878.06 646664.04,5492836.15 646653.02,5492848.25 646689.66,5492881.39 646679.32,5492892.76 646652.15,5492868.18 646639.04,5492882.59 646665.67,5492906.69 646656.96,5492916.25 646633.78,5492895.28 646621.75,5492908.51 646643.69,5492928.35 646627.26,5492946.41 646620.37,5492946.17 646613.11,5492945.91 646597.11,5492931.45 646616.62,5492909.99 646604.99,5492899.47 646584.78,5492921.68 646572.55,5492910.62 646594.54,5492886.45 646583.22,5492876.21 646550.80,5492911.85"/>
    <poly id="30372672" type="building" color="1.00,0.00,0.00" fill="1" layer="4" shape="646615.15,5492859.18 646658.20,5492812.84 646637.17,5492793.40 646594.11,5492839.75 646615.15,5492859.18"/>
    <poly id="30372844" type="building" color="1.00,0.00,0.00" fill="1" layer="4" shape="646798.11,5493055.45 646819.40,5493032.98 646805.29,5493019.69 646784.00,5493042.14 646798.11,5493055.45"/>
    <poly id="30372845" type="building" color="1.00,0.00,0.00" fill="1" layer="4" shape="646820.47,5493078.90 646843.22,5493055.65 646823.01,5493036.01 646800.27,5493059.25 646820.47,5493078.90"/>
    <poly id="30835051" type="building" color="1.00,0.00,0.00" fill="1" layer="4" shape="644894.28,5493255.67 644910.59,5493249.29 644872.18,5493158.37 644865.62,5493142.84 644849.30,5493149.21 644894.28,5493255.67"/>
    <poly id="30835061" type="building" color="1.00,0.00,0.00" fill="1" layer="4" shape="644994.78,5493351.84 644999.90,5493349.50 645006.47,5493346.52 645084.67,5493310.89 645077.60,5493296.46 644987.13,5493336.16 644994.78,5493351.84"/>
    <poly id="31026112" type="building" color="1.00,0.00,0.00" fill="1" layer="4" shape="646351.41,5494132.25 646353.64,5494168.73 646451.30,5494162.39 646450.39,5494126.15 646397.50,5494129.41 646351.41,5494132.25"/>
    <poly id="31173258" type="building" color="1.00,0.00,0.00" fill="1" layer="4" shape="644885.21,5494113.76 644909.53,5494114.16 644909.60,5494110.25 644910.29,5494067.40 644885.97,5494067.01 644885.21,5494113.76"/>
    <poly id="31241860" type="building" color="1.00,0.00,0.00" fill="1" layer="4" shape="644754.57,5493405.22 644768.57,5493439.02 644809.41,5493420.92 644794.08,5493385.71 644754.57,5493405.22"/>
    <poly id="31241866" type="building" color="1.00,0.00,0.00" fill="1" layer="4" shape="644678.35,5493441.46 644567.08,5493492.98 644582.79,5493532.41 644697.14,5493482.20 644678.35,5493441.46"/>
    <poly id="31241869" type="building" color="1.00,0.00,0.00" fill="1" layer="4" shape="644659.14,5493510.29 644698.48,5493594.91 644750.60,5493572.78 644708.79,5493487.47 644659.14,5493510.29"/>
    <poly id="31241873" type="building" color="1.00,0.00,0.00" fill="1" layer="4" shape="644841.84,5493504.00 644847.70,5493517.16 644860.26,5493511.93 644854.15,5493498.57 644841.84,5493504.00"/>
    <poly id="31241880" type="building" color="1.00,0.00,0.00" fill="1" layer="4" shape="644696.19,5493610.95 644586.23,5493660.03 644570.35,5493626.80 644555.90,5493633.23 644579.86,5493689.59 644604.97,5493679.11 644613.79,5493697.92 644716.22,5493651.73 644696.19,5493610.95"/>
    <poly id="31241903" type="building" color="1.00,0.00,0.00" fill="1" layer="4" shape="644652.26,5493511.96 644682.55,5493577.59 644663.07,5493586.35 644633.40,5493520.75 644652.26,5493511.96"/>
    <poly id="31241926" type="building" color="1.00,0.00,0.00" fill="1" layer="4" shape="644767.55,5493439.93 644705.58,5493468.18 644690.32,5493434.96 644753.19,5493405.68 644767.55,5493439.93"/>
    <poly id="31241933" type="building" color="1.00,0.00,0.00" fill="1" layer="4" shape="644794.04,5493596.84 644801.08,5493612.51 644873.94,5493581.02 644866.32,5493564.09 644794.04,5493596.84"/>
    <poly id="31241937" type="building" color="1.00,0.00,0.00" fill="1" layer="4" shape="644725.55,5493627.83 644733.78,5493644.77 644771.50,5493627.19 644763.27,5493610.26 644725.55,5493627.83"/>
    <poly id="31241939" type="building" color="1.00,0.00,0.00" fill="1" layer="4" shape="644781.47,5493602.70 644785.31,5493612.52 644771.73,5493618.53 644767.64,5493609.15 644781.47,5493602.70"/>
    <poly id="31241962" type="building" color="1.00,0.00,0.00" fill="1" layer="4" shape="644724.97,5493486.04 644745.53,5493529.92 644831.00,5493491.33 644811.05,5493448.09 644724.97,5493486.04"/>
    <poly id="31241968" type="building" color="1.00,0.00,0.00" fill="1" layer="4" shape="645051.74,5493409.30 645078.25,5493471.27 645080.16,5493476.53 645083.89,5493484.46 645101.47,5493476.87 645068.74,5493400.46 645051.74,5493409.30"/>
    <poly id="31241976" type="building" color="1.00,0.00,0.00" fill="1" layer="4" shape="644986.93,5493441.62 645012.55,5493497.91 645015.42,5493504.20 645018.60,5493511.20 645003.53,5493517.60 644972.46,5493448.67 644986.93,5493441.62"/>
    <poly id="31241984" type="building" color="1.00,0.00,0.00" fill="1" layer="4" shape="645018.71,5493483.95 645022.86,5493493.10 645025.96,5493499.91 645028.68,5493505.89 645073.93,5493485.43 645071.67,5493480.46 645069.15,5493474.91 645063.96,5493463.49 645018.71,5493483.95"/>
    <poly id="31242081" type="building" color="1.00,0.00,0.00" fill="1" layer="4" shape="645442.92,5493112.29 645374.95,5493143.15 645406.03,5493211.18 645473.99,5493180.30 645442.92,5493112.29"/>
    <poly id="31243595" type="building" color="1.00,0.00,0.00" fill="1" layer="4" shape="645025.86,5493367.33 645016.54,5493370.06 645009.57,5493372.10 645004.59,5493373.57 644976.22,5493389.53 644987.43,5493411.50 645019.46,5493398.12 645035.90,5493386.78 645025.86,5493367.33"/>
    <poly id="31253072" type="building" color="1.00,0.00,0.00" fill="1" layer="4" shape="644847.44,5493517.59 644865.05,5493555.83 644871.96,5493552.91 644854.35,5493514.67 644847.44,5493517.59"/>
    <poly id="31253100" type="building" color="1.00,0.00,0.00" fill="1" layer="4" shape="644749.92,5493542.23 644758.67,5493563.52 644771.86,5493557.67 644763.10,5493537.02 644749.92,5493542.23"/>
    <poly id="31261361" type="building" color="1.00,0.00,0.00" fill="1" layer="4" shape="644682.55,5493577.59 644692.80,5493598.48 644626.21,5493627.67 644616.93,5493607.73 644631.88,5493601.20 644663.07,5493586.35 644682.55,5493577.59"/>
    <poly id="31261368" type="building" color="1.00,0.00,0.00" fill="1" layer="4" shape="644616.93,5493607.73 644591.66,5493549.35 644606.09,5493543.55 644631.88,5493601.20 644616.93,5493607.73"/>
    <poly id="31270329" type="building" color="1.00,0.00,0.00" fill="1" layer="4" shape="644866.93,5493044.52 644874.40,5493060.77 644899.74,5493049.21 644909.28,5493069.99 644933.28,5493059.26 644924.19,5493039.39 644957.17,5493024.34 644949.19,5493006.96 644866.93,5493044.52"/>
    <poly id="31270442" type="building" color="1.00,0.00,0.00" fill="1" layer="4" shape="645461.43,5493092.27 645481.66,5493135.82 645524.77,5493115.91 645504.54,5493072.36 645461.43,5493092.27"/>
    <poly id="31270443" type="building" color="1.00,0.00,0.00" fill="1" layer="4" shape="645499.92,5493026.04 645483.15,5492988.22 645393.73,5493028.13 645410.51,5493065.47 645499.92,5493026.04"/>
    <poly id="31270444" type="building" color="1.00,0.00,0.00" fill="1" layer="4" shape="645410.51,5493065.47 645417.04,5493079.99 645506.45,5493039.96 645499.92,5493026.04 645410.51,5493065.47"/>
    <poly id="31279046" type="building" color="1.00,0.00,0.00" fill="1" layer="4" shape="644884.65,5493471.01 644895.33,5493466.35 644890.61,5493456.93 644880.56,5493461.62 644884.65,5493471.01"/>
    <poly id="31279069" type="building" color="1.00,0.00,0.00" fill="1" layer="4" shape="645015.42,5493504.20 645025.96,5493499.91 645022.86,5493493.10 645012.55,5493497.91 645015.42,5493504.20"/>
    <poly id="31279088" type="building" color="1.00,0.00,0.00" fill="1" layer="4" shape="645071.67,5493480.46 645080.16,5493476.53 645078.25,5493471.27 645069.15,5493474.91 645071.67,5493480.46"/>
    <poly id="31279097" type="building" color="1.00,0.00,0.00" fill="1" layer="4" shape="644999.90,5493349.50 645009.57,5493372.10 645016.54,5493370.06 645006.47,5493346.52 644999.90,5493349.50"/>
    <poly id="31279117" type="building" color="1.00,0.00,0.00" fill="1" layer="4" shape="645099.17,5493392.21 645113.20,5493424.78 645149.65,5493408.42 645134.98,5493376.45 645099.17,5493392.21"/>
    <poly id="31279120" type="building" color="1.00,0.00,0.00" fill="1" layer="4" shape="645247.26,5493264.28 645253.10,5493278.05 645354.28,5493232.47 645347.86,5493217.43 645247.26,5493264.28"/>
    <poly id="31279132" type="building" color="1.00,0.00,0.00" fill="1" layer="4" shape="645167.27,5493399.60 645201.21,5493384.41 645186.52,5493353.06 645152.57,5493368.87 645167.27,5493399.60"/>
    <poly id="31279133" type="building" color="1.00,0.00,0.00" fill="1" layer="4" shape="645244.29,5493166.37 645270.78,5493220.33 645324.89,5493193.91 645298.99,5493140.59 645244.29,5493166.37"/>
    <poly id="31279135" type="building" color="1.00,0.00,0.00" fill="1" layer="4" shape="645101.23,5493244.13 645126.33,5493296.30 645145.09,5493287.31 645119.99,5493235.15 645101.23,5493244.13"/>
    <poly id="31279137" type="building" color="1.00,0.00,0.00" fill="1" layer="4" shape="645157.73,5493219.37 645180.85,5493268.12 645195.15,5493261.37 645184.91,5493239.78 645192.04,5493236.42 645188.80,5493229.58 645181.67,5493232.94 645172.03,5493212.64 645157.73,5493219.37"/>
    <poly id="31279140" type="building" color="1.00,0.00,0.00" fill="1" layer="4" shape="645061.79,5493163.98 645092.86,5493232.92 645145.02,5493209.55 645112.72,5493140.57 645061.79,5493163.98"/>
    <poly id="31279144" type="building" color="1.00,0.00,0.00" fill="1" layer="4" shape="644957.45,5493211.35 644999.02,5493305.95 645017.24,5493297.77 644975.68,5493203.17 644957.45,5493211.35"/>
    <poly id="31279156" type="building" color="1.00,0.00,0.00" fill="1" layer="4" shape="645013.29,5493189.94 645050.82,5493272.66 645083.50,5493258.05 645045.97,5493175.32 645013.29,5493189.94"/>
    <poly id="31279158" type="building" color="1.00,0.00,0.00" fill="1" layer="4" shape="644940.41,5493222.04 644951.56,5493246.48 644961.63,5493241.18 644950.48,5493216.74 644940.41,5493222.04"/>
    <poly id="31279163" type="building" color="1.00,0.00,0.00" fill="1" layer="4" shape="644785.55,5493208.01 644806.16,5493250.04 644828.81,5493238.88 644808.22,5493196.23 644785.55,5493208.01"/>
    <poly id="31279422" type="building" color="1.00,0.00,0.00" fill="1" layer="4" shape="645110.83,5493443.91 645135.00,5493492.23 645257.54,5493437.30 645269.32,5493461.14 645284.40,5493454.11 645272.63,5493430.27 645304.09,5493413.73 645280.56,5493365.47 645267.34,5493372.55 645280.85,5493401.39 645263.85,5493410.22 645227.97,5493335.59 645214.11,5493342.65 645248.76,5493417.25 645231.15,5493425.45 645215.88,5493392.84 645203.95,5493398.10 645219.20,5493431.32 645201.61,5493438.90 645186.33,5493406.92 645173.73,5493413.39 645189.04,5493444.76 645171.43,5493452.95 645155.49,5493422.19 645143.54,5493428.07 645158.85,5493459.43 645140.61,5493468.23 645125.30,5493436.86 645110.83,5493443.91"/>
    <poly id="31279483" type="building" color="1.00,0.00,0.00" fill="1" layer="4" shape="645267.99,5493097.52 645281.40,5493126.59 645390.65,5493075.64 645376.99,5493046.54 645341.56,5493063.07 645337.79,5493064.82 645282.55,5493090.60 645267.99,5493097.52"/>
    <poly id="31279495" type="building" color="1.00,0.00,0.00" fill="1" layer="4" shape="645201.24,5493127.46 645210.65,5493146.90 645191.18,5493155.04 645197.06,5493167.59 645252.37,5493142.44 645246.48,5493130.52 645221.99,5493141.02 645213.17,5493122.20 645201.24,5493127.46"/>
    <poly id="31279497" type="building" color="1.00,0.00,0.00" fill="1" layer="4" shape="645177.10,5493124.33 645182.39,5493135.62 645201.24,5493127.46 645213.17,5493122.20 645244.60,5493108.18 645239.30,5493096.89 645177.10,5493124.33"/>
    <poly id="31279509" type="building" color="1.00,0.00,0.00" fill="1" layer="4" shape="645349.76,5493122.76 645356.19,5493137.78 645408.99,5493113.81 645402.51,5493100.63 645349.76,5493122.76"/>
    <poly id="31279526" type="building" color="1.00,0.00,0.00" fill="1" layer="4" shape="645312.34,5492909.77 645349.44,5492992.26 645364.27,5492985.62 645327.17,5492903.15 645312.34,5492909.77"/>
    <poly id="31279553" type="building" color="1.00,0.00,0.00" fill="1" layer="4" shape="645262.69,5492779.24 645266.42,5492825.79 645361.62,5492818.42 645357.28,5492771.87 645262.69,5492779.24"/>
    <poly id="31279576" type="building" color="1.00,0.00,0.00" fill="1" layer="4" shape="644884.86,5493080.95 644898.02,5493110.16 644964.40,5493080.45 644966.63,5493085.40 644954.28,5493090.93 644958.66,5493100.67 644986.34,5493088.28 644982.05,5493078.76 644972.92,5493082.84 644970.59,5493077.67 644979.64,5493073.63 644966.48,5493044.40 644933.28,5493059.26 644909.28,5493069.99 644884.86,5493080.95"/>
    <poly id="31279766" type="building" color="1.00,0.00,0.00" fill="1" layer="4" shape="644913.22,5493147.02 644926.75,5493175.24 644979.55,5493151.26 644966.63,5493123.67 644913.22,5493147.02"/>
    <poly id="31279770" type="building" color="1.00,0.00,0.00" fill="1" layer="4" shape="644978.54,5492988.01 644996.47,5493026.21 644997.55,5493025.71 645001.13,5493033.32 644999.96,5493033.87 645016.48,5493069.08 645031.50,5493062.07 644993.48,5492981.05 644978.54,5492988.01"/>
    <poly id="31279774" type="building" color="1.00,0.00,0.00" fill="1" layer="4" shape="645005.20,5492981.05 645014.58,5493001.73 645041.63,5492988.84 645047.48,5493001.99 645070.12,5492991.45 645054.26,5492957.59 645005.20,5492981.05"/>
    <poly id="31279790" type="building" color="1.00,0.00,0.00" fill="1" layer="4" shape="645082.20,5493004.16 645086.89,5493014.81 645103.87,5493006.59 645099.17,5492996.56 645082.20,5493004.16"/>
    <poly id="31279797" type="building" color="1.00,0.00,0.00" fill="1" layer="4" shape="645034.61,5493042.51 645053.37,5493083.89 645088.60,5493066.86 645069.83,5493025.50 645034.61,5493042.51"/>
    <poly id="31279804" type="building" color="1.00,0.00,0.00" fill="1" layer="4" shape="645056.23,5493093.24 645062.07,5493107.02 645099.78,5493090.07 645093.30,5493076.90 645056.23,5493093.24"/>
    <poly id="31279808" type="building" color="1.00,0.00,0.00" fill="1" layer="4" shape="645120.84,5493091.87 645131.98,5493116.32 645150.83,5493108.16 645139.71,5493083.09 645120.84,5493091.87"/>
    <poly id="31279813" type="building" color="1.00,0.00,0.00" fill="1" layer="4" shape="645112.63,5493073.70 645116.16,5493081.22 645133.78,5493072.40 645130.24,5493065.50 645112.63,5493073.70"/>
    <poly id="31279816" type="building" color="1.00,0.00,0.00" fill="1" layer="4" shape="645103.19,5493055.49 645106.73,5493062.39 645123.71,5493054.18 645120.17,5493047.28 645103.19,5493055.49"/>
    <poly id="31279824" type="building" color="1.00,0.00,0.00" fill="1" layer="4" shape="645091.45,5493029.79 645098.53,5493043.60 645114.88,5493035.99 645107.80,5493022.17 645091.45,5493029.79"/>
    <poly id="31279827" type="building" color="1.00,0.00,0.00" fill="1" layer="4" shape="645091.25,5493107.18 645103.00,5493132.27 645114.32,5493127.00 645101.93,5493102.51 645091.25,5493107.18"/>
    <poly id="31279873" type="building" color="1.00,0.00,0.00" fill="1" layer="4" shape="645092.75,5492938.47 645100.99,5492956.30 645125.94,5492944.84 645117.70,5492927.01 645092.75,5492938.47"/>
    <poly id="31279909" type="building" color="1.00,0.00,0.00" fill="1" layer="4" shape="645111.67,5492984.58 645117.54,5492997.27 645169.30,5492973.49 645163.43,5492960.79 645111.67,5492984.58"/>
    <poly id="31279943" type="building" color="1.00,0.00,0.00" fill="1" layer="4" shape="645127.93,5493018.61 645133.50,5493030.65 645184.05,5493007.42 645178.48,5492995.38 645127.93,5493018.61"/>
    <poly id="31279951" type="building" color="1.00,0.00,0.00" fill="1" layer="4" shape="645141.28,5493047.22 645148.35,5493061.65 645231.93,5493024.25 645222.45,5493007.28 645141.28,5493047.22"/>
    <poly id="31279953" type="building" color="1.00,0.00,0.00" fill="1" layer="4" shape="645163.15,5493088.67 645167.80,5493100.56 645241.37,5493065.99 645236.07,5493055.32 645163.15,5493088.67"/>
    <poly id="31279956" type="building" color="1.00,0.00,0.00" fill="1" layer="4" shape="645259.77,5493028.09 645269.72,5493050.65 645289.85,5493041.27 645279.26,5493019.32 645259.77,5493028.09"/>
    <poly id="31279959" type="building" color="1.00,0.00,0.00" fill="1" layer="4" shape="645169.93,5492950.77 645193.47,5492999.70 645219.91,5492986.16 645208.75,5492962.34 645194.28,5492969.37 645187.80,5492956.20 645228.66,5492937.47 645223.36,5492926.81 645169.93,5492950.77"/>
    <poly id="31279963" type="building" color="1.00,0.00,0.00" fill="1" layer="4" shape="645224.42,5492956.56 645227.91,5492965.32 645244.89,5492957.73 645250.74,5492970.88 645271.49,5492961.53 645269.74,5492957.15 645294.25,5492946.04 645288.97,5492934.75 645268.84,5492944.12 645265.91,5492937.85 645224.42,5492956.56"/>
    <poly id="31279987" type="building" color="1.00,0.00,0.00" fill="1" layer="4" shape="645246.93,5492997.41 645254.00,5493011.84 645288.61,5492994.81 645282.13,5492981.63 645246.93,5492997.41"/>
    <poly id="31279990" type="building" color="1.00,0.00,0.00" fill="1" layer="4" shape="645304.44,5493006.38 645307.34,5493013.88 645316.15,5493009.78 645312.60,5493002.88 645304.44,5493006.38"/>
    <poly id="31280000" type="building" color="1.00,0.00,0.00" fill="1" layer="4" shape="645322.07,5492997.56 645325.57,5493005.69 645331.22,5493003.38 645327.09,5492995.21 645322.07,5492997.56"/>
    <poly id="31280161" type="building" color="1.00,0.00,0.00" fill="1" layer="4" shape="645287.54,5493308.87 645292.24,5493318.90 645309.21,5493311.30 645304.50,5493301.28 645287.54,5493308.87"/>