<?xml version="1.0" encoding="UTF-8"?>

<!-- generated on 01/21/15 16:04:19 by SUMO netconvert Version dev-SVN-rUNKNOWN
<?xml version="1.0" encoding="UTF-8"?>

<configuration xmlns:xsi="http://www.w3.org/2001/XMLSchema-instance" xsi:noNamespaceSchemaLocation="http://sumo.dlr.de/xsd/netconvertConfiguration.xsd">

    <input>
        <node-files value="c:\users\dkrajzew\appdata\local\temp\tmpjq4s91"/>
        <edge-files value="c:\users\dkrajzew\appdata\local\temp\tmpyqe0uf"/>
        <connection-files value="c:\users\dkrajzew\appdata\local\temp\tmpd7nv9f"/>
    </input>

    <output>
        <output-file value="D:\projects\x_EU_COLOMBO_318622\svn_smartSVN\trunk\software\sumo\tools\sumolib\scenario\scenarios\BasicRiLSANet2x2\network.net.xml"/>
    </output>

    <report>
        <verbose value="true"/>
    </report>

</configuration>
-->

<net version="0.13" xmlns:xsi="http://www.w3.org/2001/XMLSchema-instance" xsi:noNamespaceSchemaLocation="http://sumo.dlr.de/xsd/net_file.xsd">

    <location netOffset="0.00,0.00" convBoundary="0.00,0.00,2500.00,2500.00" origBoundary="0.00,0.00,2500.00,2500.00" projParameter="!"/>

    <edge id=":0/1_0" function="internal">
        <lane id=":0/1_0_0" index="0" disallow="pedestrian" speed="13.89" length="9.64" shape="0.00,501.65 -2.47,500.00 -3.30,498.35 -2.47,496.70 0.00,495.05"/>
    </edge>
    <edge id=":0/1_w0" function="walkingarea">
        <lane id=":0/1_w0_0" index="0" allow="pedestrian" speed="1.00" length="16.50" width="3.20" shape="0.00,493.35 0.00,490.15 0.00,509.85 0.00,506.65"/>
    </edge>
    <edge id=":0/1_to_1/1.-100_0" function="internal">
        <lane id=":0/1_to_1/1.-100_0_0" index="0" allow="pedestrian" speed="13.89" length="3.49" shape="398.50,491.75 401.50,491.75"/>
        <lane id=":0/1_to_1/1.-100_0_1" index="1" disallow="pedestrian" speed="13.89" length="3.49" shape="398.50,495.05 401.50,495.05"/>
        <lane id=":0/1_to_1/1.-100_0_2" index="2" speed="13.89" length="3.49" shape="398.50,495.05 401.50,498.35"/>
    </edge>
    <edge id=":0/2_0" function="internal">
        <lane id=":0/2_0_0" index="0" disallow="pedestrian" speed="13.89" length="9.64" shape="0.00,1001.65 -2.47,1000.00 -3.30,998.35 -2.47,996.70 0.00,995.05"/>
    </edge>
    <edge id=":0/2_w0" function="walkingarea">
        <lane id=":0/2_w0_0" index="0" allow="pedestrian" speed="1.00" length="16.50" width="3.20" shape="0.00,993.35 0.00,990.15 0.00,1009.85 0.00,1006.65"/>
    </edge>
    <edge id=":0/2_to_1/2.-100_0" function="internal">
        <lane id=":0/2_to_1/2.-100_0_0" index="0" allow="pedestrian" speed="13.89" length="3.49" shape="398.50,991.75 401.50,991.75"/>
        <lane id=":0/2_to_1/2.-100_0_1" index="1" disallow="pedestrian" speed="13.89" length="3.49" shape="398.50,995.05 401.50,995.05"/>
        <lane id=":0/2_to_1/2.-100_0_2" index="2" speed="13.89" length="3.49" shape="398.50,995.05 401.50,998.35"/>
    </edge>
    <edge id=":0/3_0" function="internal">
        <lane id=":0/3_0_0" index="0" disallow="pedestrian" speed="13.89" length="9.64" shape="0.00,1501.65 -2.48,1500.00 -3.30,1498.35 -2.48,1496.70 0.00,1495.05"/>
    </edge>
    <edge id=":0/3_w0" function="walkingarea">
        <lane id=":0/3_w0_0" index="0" allow="pedestrian" speed="1.00" length="16.50" width="3.20" shape="0.00,1493.35 0.00,1490.15 0.00,1509.85 0.00,1506.65"/>
    </edge>
    <edge id=":0/3_to_1/3.-100_0" function="internal">
        <lane id=":0/3_to_1/3.-100_0_0" index="0" allow="pedestrian" speed="13.89" length="3.49" shape="398.50,1491.75 401.50,1491.75"/>
        <lane id=":0/3_to_1/3.-100_0_1" index="1" disallow="pedestrian" speed="13.89" length="3.49" shape="398.50,1495.05 401.50,1495.05"/>
        <lane id=":0/3_to_1/3.-100_0_2" index="2" speed="13.89" length="3.49" shape="398.50,1495.05 401.50,1498.35"/>
    </edge>
    <edge id=":0/4_0" function="internal">
        <lane id=":0/4_0_0" index="0" disallow="pedestrian" speed="13.89" length="9.64" shape="0.00,2001.65 -2.48,2000.00 -3.30,1998.35 -2.48,1996.70 0.00,1995.05"/>
    </edge>
    <edge id=":0/4_w0" function="walkingarea">
        <lane id=":0/4_w0_0" index="0" allow="pedestrian" speed="1.00" length="16.50" width="3.20" shape="0.00,1993.35 0.00,1990.15 0.00,2009.85 0.00,2006.65"/>
    </edge>
    <edge id=":0/4_to_1/4.-100_0" function="internal">
        <lane id=":0/4_to_1/4.-100_0_0" index="0" allow="pedestrian" speed="13.89" length="3.49" shape="398.50,1991.75 401.50,1991.75"/>
        <lane id=":0/4_to_1/4.-100_0_1" index="1" disallow="pedestrian" speed="13.89" length="3.49" shape="398.50,1995.05 401.50,1995.05"/>
        <lane id=":0/4_to_1/4.-100_0_2" index="2" speed="13.89" length="3.49" shape="398.50,1995.05 401.50,1998.35"/>
    </edge>
    <edge id=":1/0_0" function="internal">
        <lane id=":1/0_0_0" index="0" disallow="pedestrian" speed="13.89" length="9.64" shape="498.35,0.00 500.00,-2.47 501.65,-3.30 503.30,-2.47 504.95,0.00"/>
    </edge>
    <edge id=":1/0_w0" function="walkingarea">
        <lane id=":1/0_w0_0" index="0" allow="pedestrian" speed="1.00" length="16.50" width="3.20" shape="506.65,0.00 509.85,0.00 490.15,0.00 493.35,0.00"/>
    </edge>
    <edge id=":1/0_to_1/1.-100_0" function="internal">
        <lane id=":1/0_to_1/1.-100_0_0" index="0" allow="pedestrian" speed="13.89" length="3.49" shape="508.25,398.50 508.25,401.50"/>
        <lane id=":1/0_to_1/1.-100_0_1" index="1" disallow="pedestrian" speed="13.89" length="3.49" shape="504.95,398.50 504.95,401.50"/>
        <lane id=":1/0_to_1/1.-100_0_2" index="2" speed="13.89" length="3.49" shape="504.95,398.50 501.65,401.50"/>
    </edge>
    <edge id=":1/1_0" function="internal">
        <lane id=":1/1_0_0" index="0" allow="pedestrian" speed="13.89" length="22.70" shape="491.75,511.35 491.75,504.42 491.75,499.49 491.75,494.82 491.75,488.65"/>
    </edge>
    <edge id=":1/1_1" function="internal">
        <lane id=":1/1_1_0" index="0" disallow="pedestrian" speed="13.89" length="10.32" shape="495.05,511.35 494.65,508.55 493.45,506.55 491.45,505.35 488.65,504.95"/>
    </edge>
    <edge id=":1/1_2" function="internal">
        <lane id=":1/1_2_0" index="0" disallow="pedestrian" speed="13.89" length="22.70" shape="495.05,511.35 495.05,504.42 495.05,499.49 495.05,494.82 495.05,488.65"/>
    </edge>
    <edge id=":1/1_3" function="internal">
        <lane id=":1/1_3_0" index="0" disallow="pedestrian" speed="13.89" length="3.12" shape="498.35,511.35 498.70,508.25"/>
    </edge>
    <edge id=":1/1_16" function="internal">
        <lane id=":1/1_16_0" index="0" speed="13.89" length="20.57" shape="498.70,508.25 499.16,504.22 501.60,499.13 505.66,496.07 511.35,495.05"/>
    </edge>
    <edge id=":1/1_4" function="internal">
        <lane id=":1/1_4_0" index="0" allow="pedestrian" speed="13.89" length="22.70" shape="511.35,508.25 504.42,508.25 499.49,508.25 494.82,508.25 488.65,508.25"/>
    </edge>
    <edge id=":1/1_5" function="internal">
        <lane id=":1/1_5_0" index="0" disallow="pedestrian" speed="13.89" length="10.32" shape="511.35,504.95 508.55,505.35 506.55,506.55 505.35,508.55 504.95,511.35"/>
    </edge>
    <edge id=":1/1_6" function="internal">
        <lane id=":1/1_6_0" index="0" disallow="pedestrian" speed="13.89" length="22.70" shape="511.35,504.95 504.42,504.95 499.49,504.95 494.82,504.95 488.65,504.95"/>
    </edge>
    <edge id=":1/1_7" function="internal">
        <lane id=":1/1_7_0" index="0" disallow="pedestrian" speed="13.89" length="3.12" shape="511.35,501.65 508.25,501.30"/>
    </edge>
    <edge id=":1/1_17" function="internal">
        <lane id=":1/1_17_0" index="0" speed="13.89" length="20.57" shape="508.25,501.30 504.22,500.84 499.13,498.40 496.07,494.34 495.05,488.65"/>
    </edge>
    <edge id=":1/1_8" function="internal">
        <lane id=":1/1_8_0" index="0" allow="pedestrian" speed="13.89" length="22.70" shape="508.25,488.65 508.25,495.58 508.25,500.51 508.25,505.18 508.25,511.35"/>
    </edge>
    <edge id=":1/1_9" function="internal">
        <lane id=":1/1_9_0" index="0" disallow="pedestrian" speed="13.89" length="10.32" shape="504.95,488.65 505.35,491.45 506.55,493.45 508.55,494.65 511.35,495.05"/>
    </edge>
    <edge id=":1/1_10" function="internal">
        <lane id=":1/1_10_0" index="0" disallow="pedestrian" speed="13.89" length="22.70" shape="504.95,488.65 504.95,495.58 504.95,500.51 504.95,505.18 504.95,511.35"/>
    </edge>
    <edge id=":1/1_11" function="internal">
        <lane id=":1/1_11_0" index="0" disallow="pedestrian" speed="13.89" length="3.12" shape="501.65,488.65 501.30,491.75"/>
    </edge>
    <edge id=":1/1_18" function="internal">
        <lane id=":1/1_18_0" index="0" speed="13.89" length="20.57" shape="501.30,491.75 500.84,495.78 498.40,500.88 494.34,503.93 488.65,504.95"/>
    </edge>
    <edge id=":1/1_12" function="internal">
        <lane id=":1/1_12_0" index="0" allow="pedestrian" speed="13.89" length="22.70" shape="488.65,491.75 495.58,491.75 500.51,491.75 505.18,491.75 511.35,491.75"/>
    </edge>
    <edge id=":1/1_13" function="internal">
        <lane id=":1/1_13_0" index="0" disallow="pedestrian" speed="13.89" length="10.32" shape="488.65,495.05 491.45,494.65 493.45,493.45 494.65,491.45 495.05,488.65"/>
    </edge>
    <edge id=":1/1_14" function="internal">
        <lane id=":1/1_14_0" index="0" disallow="pedestrian" speed="13.89" length="22.70" shape="488.65,495.05 495.58,495.05 500.51,495.05 505.18,495.05 511.35,495.05"/>
    </edge>
    <edge id=":1/1_15" function="internal">
        <lane id=":1/1_15_0" index="0" disallow="pedestrian" speed="13.89" length="3.12" shape="488.65,498.35 491.75,498.70"/>
    </edge>
    <edge id=":1/1_19" function="internal">
        <lane id=":1/1_19_0" index="0" speed="13.89" length="20.57" shape="491.75,498.70 495.78,499.16 500.88,501.60 503.93,505.66 504.95,511.35"/>
    </edge>
    <edge id=":1/1_c0" function="crossing" crossingEdges="1/1_to_1/2 1/2_to_1/1.-100">
        <lane id=":1/1_c0_0" index="0" allow="pedestrian" speed="1.00" length="13.10" width="4.00" shape="506.55,509.35 493.45,509.35"/>
    </edge>
    <edge id=":1/1_c1" function="crossing" crossingEdges="1/1_to_2/1 2/1_to_1/1.-100">
        <lane id=":1/1_c1_0" index="0" allow="pedestrian" speed="1.00" length="13.10" width="4.00" shape="509.35,493.45 509.35,506.55"/>
    </edge>
    <edge id=":1/1_c2" function="crossing" crossingEdges="1/1_to_1/0 1/0_to_1/1.-100">
        <lane id=":1/1_c2_0" index="0" allow="pedestrian" speed="1.00" length="13.10" width="4.00" shape="493.45,490.65 506.55,490.65"/>
    </edge>
    <edge id=":1/1_c3" function="crossing" crossingEdges="1/1_to_0/1 0/1_to_1/1.-100">
        <lane id=":1/1_c3_0" index="0" allow="pedestrian" speed="1.00" length="13.10" width="4.00" shape="490.65,506.55 490.65,493.45"/>
    </edge>
    <edge id=":1/1_w0" function="walkingarea">
        <lane id=":1/1_w0_0" index="0" allow="pedestrian" speed="1.00" length="3.91" width="4.00" shape="492.65,506.55 488.65,506.65 488.65,509.85 490.15,511.35 493.35,511.35 493.45,511.35 493.45,507.35"/>
    </edge>
    <edge id=":1/1_w2" function="walkingarea">
        <lane id=":1/1_w2_0" index="0" allow="pedestrian" speed="1.00" length="3.91" width="4.00" shape="506.55,507.35 506.65,511.35 509.85,511.35 511.35,509.85 511.35,506.65 511.35,506.55 507.35,506.55"/>
    </edge>
    <edge id=":1/1_w4" function="walkingarea">
        <lane id=":1/1_w4_0" index="0" allow="pedestrian" speed="1.00" length="3.91" width="4.00" shape="507.35,493.45 511.35,493.35 511.35,490.15 509.85,488.65 506.65,488.65 506.55,488.65 506.55,492.65"/>
    </edge>
    <edge id=":1/1_w6" function="walkingarea">
        <lane id=":1/1_w6_0" index="0" allow="pedestrian" speed="1.00" length="3.91" width="4.00" shape="493.45,492.65 493.35,488.65 490.15,488.65 488.65,490.15 488.65,493.35 488.65,493.45 492.65,493.45"/>
    </edge>
    <edge id=":1/1_to_0/1.-100_0" function="internal">
        <lane id=":1/1_to_0/1.-100_0_0" index="0" allow="pedestrian" speed="13.89" length="3.49" shape="101.50,508.25 98.50,508.25"/>
        <lane id=":1/1_to_0/1.-100_0_1" index="1" disallow="pedestrian" speed="13.89" length="3.49" shape="101.50,504.95 98.50,504.95"/>
        <lane id=":1/1_to_0/1.-100_0_2" index="2" speed="13.89" length="3.49" shape="101.50,504.95 98.50,501.65"/>
    </edge>
    <edge id=":1/1_to_1/0.-100_0" function="internal">
        <lane id=":1/1_to_1/0.-100_0_0" index="0" allow="pedestrian" speed="13.89" length="3.49" shape="491.75,101.50 491.75,98.50"/>
        <lane id=":1/1_to_1/0.-100_0_1" index="1" disallow="pedestrian" speed="13.89" length="3.49" shape="495.05,101.50 495.05,98.50"/>
        <lane id=":1/1_to_1/0.-100_0_2" index="2" speed="13.89" length="3.49" shape="495.05,101.50 498.35,98.50"/>
    </edge>
    <edge id=":1/1_to_1/2.-100_0" function="internal">
        <lane id=":1/1_to_1/2.-100_0_0" index="0" allow="pedestrian" speed="13.89" length="3.49" shape="508.25,898.50 508.25,901.50"/>
        <lane id=":1/1_to_1/2.-100_0_1" index="1" disallow="pedestrian" speed="13.89" length="3.49" shape="504.95,898.50 504.95,901.50"/>
        <lane id=":1/1_to_1/2.-100_0_2" index="2" speed="13.89" length="3.49" shape="504.95,898.50 501.65,901.50"/>
    </edge>
    <edge id=":1/1_to_2/1.-100_0" function="internal">
        <lane id=":1/1_to_2/1.-100_0_0" index="0" allow="pedestrian" speed="13.89" length="3.49" shape="898.50,491.75 901.50,491.75"/>
        <lane id=":1/1_to_2/1.-100_0_1" index="1" disallow="pedestrian" speed="13.89" length="3.49" shape="898.50,495.05 901.50,495.05"/>
        <lane id=":1/1_to_2/1.-100_0_2" index="2" speed="13.89" length="3.49" shape="898.50,495.05 901.50,498.35"/>
    </edge>
    <edge id=":1/2_0" function="internal">
        <lane id=":1/2_0_0" index="0" allow="pedestrian" speed="13.89" length="22.70" shape="491.75,1011.35 491.75,1004.42 491.75,999.49 491.75,994.82 491.75,988.65"/>
    </edge>
    <edge id=":1/2_1" function="internal">
        <lane id=":1/2_1_0" index="0" disallow="pedestrian" speed="13.89" length="10.32" shape="495.05,1011.35 494.65,1008.55 493.45,1006.55 491.45,1005.35 488.65,1004.95"/>
    </edge>
    <edge id=":1/2_2" function="internal">
        <lane id=":1/2_2_0" index="0" disallow="pedestrian" speed="13.89" length="22.70" shape="495.05,1011.35 495.05,1004.42 495.05,999.49 495.05,994.82 495.05,988.65"/>
    </edge>
    <edge id=":1/2_3" function="internal">
        <lane id=":1/2_3_0" index="0" disallow="pedestrian" speed="13.89" length="3.12" shape="498.35,1011.35 498.70,1008.25"/>
    </edge>
    <edge id=":1/2_16" function="internal">
        <lane id=":1/2_16_0" index="0" speed="13.89" length="20.57" shape="498.70,1008.25 499.16,1004.22 501.60,999.13 505.66,996.07 511.35,995.05"/>
    </edge>
    <edge id=":1/2_4" function="internal">
        <lane id=":1/2_4_0" index="0" allow="pedestrian" speed="13.89" length="22.70" shape="511.35,1008.25 504.42,1008.25 499.49,1008.25 494.82,1008.25 488.65,1008.25"/>
    </edge>
    <edge id=":1/2_5" function="internal">
        <lane id=":1/2_5_0" index="0" disallow="pedestrian" speed="13.89" length="10.32" shape="511.35,1004.95 508.55,1005.35 506.55,1006.55 505.35,1008.55 504.95,1011.35"/>
    </edge>
    <edge id=":1/2_6" function="internal">
        <lane id=":1/2_6_0" index="0" disallow="pedestrian" speed="13.89" length="22.70" shape="511.35,1004.95 504.42,1004.95 499.49,1004.95 494.82,1004.95 488.65,1004.95"/>
    </edge>
    <edge id=":1/2_7" function="internal">
        <lane id=":1/2_7_0" index="0" disallow="pedestrian" speed="13.89" length="3.12" shape="511.35,1001.65 508.25,1001.30"/>
    </edge>
    <edge id=":1/2_17" function="internal">
        <lane id=":1/2_17_0" index="0" speed="13.89" length="20.57" shape="508.25,1001.30 504.22,1000.84 499.13,998.40 496.07,994.34 495.05,988.65"/>
    </edge>
    <edge id=":1/2_8" function="internal">
        <lane id=":1/2_8_0" index="0" allow="pedestrian" speed="13.89" length="22.70" shape="508.25,988.65 508.25,995.58 508.25,1000.51 508.25,1005.18 508.25,1011.35"/>
    </edge>
    <edge id=":1/2_9" function="internal">
        <lane id=":1/2_9_0" index="0" disallow="pedestrian" speed="13.89" length="10.32" shape="504.95,988.65 505.35,991.45 506.55,993.45 508.55,994.65 511.35,995.05"/>
    </edge>
    <edge id=":1/2_10" function="internal">
        <lane id=":1/2_10_0" index="0" disallow="pedestrian" speed="13.89" length="22.70" shape="504.95,988.65 504.95,995.58 504.95,1000.51 504.95,1005.18 504.95,1011.35"/>
    </edge>
    <edge id=":1/2_11" function="internal">
        <lane id=":1/2_11_0" index="0" disallow="pedestrian" speed="13.89" length="3.12" shape="501.65,988.65 501.30,991.75"/>
    </edge>
    <edge id=":1/2_18" function="internal">
        <lane id=":1/2_18_0" index="0" speed="13.89" length="20.57" shape="501.30,991.75 500.84,995.78 498.40,1000.87 494.34,1003.93 488.65,1004.95"/>
    </edge>
    <edge id=":1/2_12" function="internal">
        <lane id=":1/2_12_0" index="0" allow="pedestrian" speed="13.89" length="22.70" shape="488.65,991.75 495.58,991.75 500.51,991.75 505.18,991.75 511.35,991.75"/>
    </edge>
    <edge id=":1/2_13" function="internal">
        <lane id=":1/2_13_0" index="0" disallow="pedestrian" speed="13.89" length="10.32" shape="488.65,995.05 491.45,994.65 493.45,993.45 494.65,991.45 495.05,988.65"/>
    </edge>
    <edge id=":1/2_14" function="internal">
        <lane id=":1/2_14_0" index="0" disallow="pedestrian" speed="13.89" length="22.70" shape="488.65,995.05 495.58,995.05 500.51,995.05 505.18,995.05 511.35,995.05"/>
    </edge>
    <edge id=":1/2_15" function="internal">
        <lane id=":1/2_15_0" index="0" disallow="pedestrian" speed="13.89" length="3.12" shape="488.65,998.35 491.75,998.70"/>
    </edge>
    <edge id=":1/2_19" function="internal">
        <lane id=":1/2_19_0" index="0" speed="13.89" length="20.57" shape="491.75,998.70 495.78,999.16 500.88,1001.60 503.93,1005.66 504.95,1011.35"/>
    </edge>
    <edge id=":1/2_c0" function="crossing" crossingEdges="1/2_to_1/3 1/3_to_1/2.-100">
        <lane id=":1/2_c0_0" index="0" allow="pedestrian" speed="1.00" length="13.10" width="4.00" shape="506.55,1009.35 493.45,1009.35"/>
    </edge>
    <edge id=":1/2_c1" function="crossing" crossingEdges="1/2_to_2/2 2/2_to_1/2.-100">
        <lane id=":1/2_c1_0" index="0" allow="pedestrian" speed="1.00" length="13.10" width="4.00" shape="509.35,993.45 509.35,1006.55"/>
    </edge>
    <edge id=":1/2_c2" function="crossing" crossingEdges="1/2_to_1/1 1/1_to_1/2.-100">
        <lane id=":1/2_c2_0" index="0" allow="pedestrian" speed="1.00" length="13.10" width="4.00" shape="493.45,990.65 506.55,990.65"/>
    </edge>
    <edge id=":1/2_c3" function="crossing" crossingEdges="1/2_to_0/2 0/2_to_1/2.-100">
        <lane id=":1/2_c3_0" index="0" allow="pedestrian" speed="1.00" length="13.10" width="4.00" shape="490.65,1006.55 490.65,993.45"/>
    </edge>
    <edge id=":1/2_w0" function="walkingarea">
        <lane id=":1/2_w0_0" index="0" allow="pedestrian" speed="1.00" length="3.91" width="4.00" shape="492.65,1006.55 488.65,1006.55 488.65,1006.65 488.65,1009.85 490.15,1011.35 493.35,1011.35 493.45,1011.35 493.45,1007.35"/>
    </edge>
    <edge id=":1/2_w2" function="walkingarea">
        <lane id=":1/2_w2_0" index="0" allow="pedestrian" speed="1.00" length="3.91" width="4.00" shape="506.55,1007.35 506.65,1011.35 509.85,1011.35 511.35,1009.85 511.35,1006.65 507.35,1006.55"/>
    </edge>
    <edge id=":1/2_w4" function="walkingarea">
        <lane id=":1/2_w4_0" index="0" allow="pedestrian" speed="1.00" length="3.91" width="4.00" shape="507.35,993.45 511.35,993.45 511.35,993.35 511.35,990.15 509.85,988.65 506.65,988.65 506.55,988.65 506.55,992.65"/>
    </edge>
    <edge id=":1/2_w6" function="walkingarea">
        <lane id=":1/2_w6_0" index="0" allow="pedestrian" speed="1.00" length="3.91" width="4.00" shape="493.45,992.65 493.35,988.65 490.15,988.65 488.65,990.15 488.65,993.35 492.65,993.45"/>
    </edge>
    <edge id=":1/2_to_0/2.-100_0" function="internal">
        <lane id=":1/2_to_0/2.-100_0_0" index="0" allow="pedestrian" speed="13.89" length="3.49" shape="101.50,1008.25 98.50,1008.25"/>
        <lane id=":1/2_to_0/2.-100_0_1" index="1" disallow="pedestrian" speed="13.89" length="3.49" shape="101.50,1004.95 98.50,1004.95"/>
        <lane id=":1/2_to_0/2.-100_0_2" index="2" speed="13.89" length="3.49" shape="101.50,1004.95 98.50,1001.65"/>
    </edge>
    <edge id=":1/2_to_1/1.-100_0" function="internal">
        <lane id=":1/2_to_1/1.-100_0_0" index="0" allow="pedestrian" speed="13.89" length="3.49" shape="491.75,601.50 491.75,598.50"/>
        <lane id=":1/2_to_1/1.-100_0_1" index="1" disallow="pedestrian" speed="13.89" length="3.49" shape="495.05,601.50 495.05,598.50"/>
        <lane id=":1/2_to_1/1.-100_0_2" index="2" speed="13.89" length="3.49" shape="495.05,601.50 498.35,598.50"/>
    </edge>
    <edge id=":1/2_to_1/3.-100_0" function="internal">
        <lane id=":1/2_to_1/3.-100_0_0" index="0" allow="pedestrian" speed="13.89" length="3.49" shape="508.25,1398.50 508.25,1401.50"/>
        <lane id=":1/2_to_1/3.-100_0_1" index="1" disallow="pedestrian" speed="13.89" length="3.49" shape="504.95,1398.50 504.95,1401.50"/>
        <lane id=":1/2_to_1/3.-100_0_2" index="2" speed="13.89" length="3.49" shape="504.95,1398.50 501.65,1401.50"/>
    </edge>
    <edge id=":1/2_to_2/2.-100_0" function="internal">
        <lane id=":1/2_to_2/2.-100_0_0" index="0" allow="pedestrian" speed="13.89" length="3.49" shape="898.50,991.75 901.50,991.75"/>
        <lane id=":1/2_to_2/2.-100_0_1" index="1" disallow="pedestrian" speed="13.89" length="3.49" shape="898.50,995.05 901.50,995.05"/>
        <lane id=":1/2_to_2/2.-100_0_2" index="2" speed="13.89" length="3.49" shape="898.50,995.05 901.50,998.35"/>
    </edge>
    <edge id=":1/3_0" function="internal">
        <lane id=":1/3_0_0" index="0" allow="pedestrian" speed="13.89" length="22.70" shape="491.75,1511.35 491.75,1504.42 491.75,1499.49 491.75,1494.82 491.75,1488.65"/>
    </edge>
    <edge id=":1/3_1" function="internal">
        <lane id=":1/3_1_0" index="0" disallow="pedestrian" speed="13.89" length="10.32" shape="495.05,1511.35 494.65,1508.55 493.45,1506.55 491.45,1505.35 488.65,1504.95"/>
    </edge>
    <edge id=":1/3_2" function="internal">
        <lane id=":1/3_2_0" index="0" disallow="pedestrian" speed="13.89" length="22.70" shape="495.05,1511.35 495.05,1504.42 495.05,1499.49 495.05,1494.82 495.05,1488.65"/>
    </edge>
    <edge id=":1/3_3" function="internal">
        <lane id=":1/3_3_0" index="0" disallow="pedestrian" speed="13.89" length="3.12" shape="498.35,1511.35 498.70,1508.25"/>
    </edge>
    <edge id=":1/3_16" function="internal">
        <lane id=":1/3_16_0" index="0" speed="13.89" length="20.57" shape="498.70,1508.25 499.16,1504.22 501.60,1499.13 505.66,1496.07 511.35,1495.05"/>
    </edge>
    <edge id=":1/3_4" function="internal">
        <lane id=":1/3_4_0" index="0" allow="pedestrian" speed="13.89" length="22.70" shape="511.35,1508.25 504.42,1508.25 499.49,1508.25 494.82,1508.25 488.65,1508.25"/>
    </edge>
    <edge id=":1/3_5" function="internal">
        <lane id=":1/3_5_0" index="0" disallow="pedestrian" speed="13.89" length="10.32" shape="511.35,1504.95 508.55,1505.35 506.55,1506.55 505.35,1508.55 504.95,1511.35"/>
    </edge>
    <edge id=":1/3_6" function="internal">
        <lane id=":1/3_6_0" index="0" disallow="pedestrian" speed="13.89" length="22.70" shape="511.35,1504.95 504.42,1504.95 499.49,1504.95 494.82,1504.95 488.65,1504.95"/>
    </edge>
    <edge id=":1/3_7" function="internal">
        <lane id=":1/3_7_0" index="0" disallow="pedestrian" speed="13.89" length="3.12" shape="511.35,1501.65 508.25,1501.30"/>
    </edge>
    <edge id=":1/3_17" function="internal">
        <lane id=":1/3_17_0" index="0" speed="13.89" length="20.57" shape="508.25,1501.30 504.22,1500.84 499.13,1498.40 496.07,1494.34 495.05,1488.65"/>
    </edge>
    <edge id=":1/3_8" function="internal">
        <lane id=":1/3_8_0" index="0" allow="pedestrian" speed="13.89" length="22.70" shape="508.25,1488.65 508.25,1495.58 508.25,1500.51 508.25,1505.18 508.25,1511.35"/>
    </edge>
    <edge id=":1/3_9" function="internal">
        <lane id=":1/3_9_0" index="0" disallow="pedestrian" speed="13.89" length="10.32" shape="504.95,1488.65 505.35,1491.45 506.55,1493.45 508.55,1494.65 511.35,1495.05"/>
    </edge>
    <edge id=":1/3_10" function="internal">
        <lane id=":1/3_10_0" index="0" disallow="pedestrian" speed="13.89" length="22.70" shape="504.95,1488.65 504.95,1495.58 504.95,1500.51 504.95,1505.18 504.95,1511.35"/>
    </edge>
    <edge id=":1/3_11" function="internal">
        <lane id=":1/3_11_0" index="0" disallow="pedestrian" speed="13.89" length="3.12" shape="501.65,1488.65 501.30,1491.75"/>
    </edge>
    <edge id=":1/3_18" function="internal">
        <lane id=":1/3_18_0" index="0" speed="13.89" length="20.57" shape="501.30,1491.75 500.84,1495.78 498.40,1500.88 494.34,1503.93 488.65,1504.95"/>
    </edge>
    <edge id=":1/3_12" function="internal">
        <lane id=":1/3_12_0" index="0" allow="pedestrian" speed="13.89" length="22.70" shape="488.65,1491.75 495.58,1491.75 500.51,1491.75 505.18,1491.75 511.35,1491.75"/>
    </edge>
    <edge id=":1/3_13" function="internal">
        <lane id=":1/3_13_0" index="0" disallow="pedestrian" speed="13.89" length="10.32" shape="488.65,1495.05 491.45,1494.65 493.45,1493.45 494.65,1491.45 495.05,1488.65"/>
    </edge>
    <edge id=":1/3_14" function="internal">
        <lane id=":1/3_14_0" index="0" disallow="pedestrian" speed="13.89" length="22.70" shape="488.65,1495.05 495.58,1495.05 500.51,1495.05 505.18,1495.05 511.35,1495.05"/>
    </edge>
    <edge id=":1/3_15" function="internal">
        <lane id=":1/3_15_0" index="0" disallow="pedestrian" speed="13.89" length="3.12" shape="488.65,1498.35 491.75,1498.70"/>
    </edge>
    <edge id=":1/3_19" function="internal">
        <lane id=":1/3_19_0" index="0" speed="13.89" length="20.57" shape="491.75,1498.70 495.78,1499.16 500.88,1501.60 503.93,1505.66 504.95,1511.35"/>
    </edge>
    <edge id=":1/3_c0" function="crossing" crossingEdges="1/3_to_1/4 1/4_to_1/3.-100">
        <lane id=":1/3_c0_0" index="0" allow="pedestrian" speed="1.00" length="13.10" width="4.00" shape="506.55,1509.35 493.45,1509.35"/>
    </edge>
    <edge id=":1/3_c1" function="crossing" crossingEdges="1/3_to_2/3 2/3_to_1/3.-100">
        <lane id=":1/3_c1_0" index="0" allow="pedestrian" speed="1.00" length="13.10" width="4.00" shape="509.35,1493.45 509.35,1506.55"/>
    </edge>
    <edge id=":1/3_c2" function="crossing" crossingEdges="1/3_to_1/2 1/2_to_1/3.-100">
        <lane id=":1/3_c2_0" index="0" allow="pedestrian" speed="1.00" length="13.10" width="4.00" shape="493.45,1490.65 506.55,1490.65"/>
    </edge>
    <edge id=":1/3_c3" function="crossing" crossingEdges="1/3_to_0/3 0/3_to_1/3.-100">
        <lane id=":1/3_c3_0" index="0" allow="pedestrian" speed="1.00" length="13.10" width="4.00" shape="490.65,1506.55 490.65,1493.45"/>
    </edge>
    <edge id=":1/3_w0" function="walkingarea">
        <lane id=":1/3_w0_0" index="0" allow="pedestrian" speed="1.00" length="3.91" width="4.00" shape="492.65,1506.55 488.65,1506.55 488.65,1506.65 488.65,1509.85 490.15,1511.35 493.35,1511.35 493.45,1511.35 493.45,1507.35"/>
    </edge>
    <edge id=":1/3_w2" function="walkingarea">
        <lane id=":1/3_w2_0" index="0" allow="pedestrian" speed="1.00" length="3.91" width="4.00" shape="506.55,1507.35 506.65,1511.35 509.85,1511.35 511.35,1509.85 511.35,1506.65 507.35,1506.55"/>
    </edge>
    <edge id=":1/3_w4" function="walkingarea">
        <lane id=":1/3_w4_0" index="0" allow="pedestrian" speed="1.00" length="3.91" width="4.00" shape="507.35,1493.45 511.35,1493.45 511.35,1493.35 511.35,1490.15 509.85,1488.65 506.65,1488.65 506.55,1488.65 506.55,1492.65"/>
    </edge>
    <edge id=":1/3_w6" function="walkingarea">
        <lane id=":1/3_w6_0" index="0" allow="pedestrian" speed="1.00" length="3.91" width="4.00" shape="493.45,1492.65 493.35,1488.65 490.15,1488.65 488.65,1490.15 488.65,1493.35 492.65,1493.45"/>
    </edge>
    <edge id=":1/3_to_0/3.-100_0" function="internal">
        <lane id=":1/3_to_0/3.-100_0_0" index="0" allow="pedestrian" speed="13.89" length="3.49" shape="101.50,1508.25 98.50,1508.25"/>
        <lane id=":1/3_to_0/3.-100_0_1" index="1" disallow="pedestrian" speed="13.89" length="3.49" shape="101.50,1504.95 98.50,1504.95"/>
        <lane id=":1/3_to_0/3.-100_0_2" index="2" speed="13.89" length="3.49" shape="101.50,1504.95 98.50,1501.65"/>
    </edge>
    <edge id=":1/3_to_1/2.-100_0" function="internal">
        <lane id=":1/3_to_1/2.-100_0_0" index="0" allow="pedestrian" speed="13.89" length="3.49" shape="491.75,1101.50 491.75,1098.50"/>
        <lane id=":1/3_to_1/2.-100_0_1" index="1" disallow="pedestrian" speed="13.89" length="3.49" shape="495.05,1101.50 495.05,1098.50"/>
        <lane id=":1/3_to_1/2.-100_0_2" index="2" speed="13.89" length="3.49" shape="495.05,1101.50 498.35,1098.50"/>
    </edge>
    <edge id=":1/3_to_1/4.-100_0" function="internal">
        <lane id=":1/3_to_1/4.-100_0_0" index="0" allow="pedestrian" speed="13.89" length="3.49" shape="508.25,1898.50 508.25,1901.50"/>
        <lane id=":1/3_to_1/4.-100_0_1" index="1" disallow="pedestrian" speed="13.89" length="3.49" shape="504.95,1898.50 504.95,1901.50"/>
        <lane id=":1/3_to_1/4.-100_0_2" index="2" speed="13.89" length="3.49" shape="504.95,1898.50 501.65,1901.50"/>
    </edge>
    <edge id=":1/3_to_2/3.-100_0" function="internal">
        <lane id=":1/3_to_2/3.-100_0_0" index="0" allow="pedestrian" speed="13.89" length="3.49" shape="898.50,1491.75 901.50,1491.75"/>
        <lane id=":1/3_to_2/3.-100_0_1" index="1" disallow="pedestrian" speed="13.89" length="3.49" shape="898.50,1495.05 901.50,1495.05"/>
        <lane id=":1/3_to_2/3.-100_0_2" index="2" speed="13.89" length="3.49" shape="898.50,1495.05 901.50,1498.35"/>
    </edge>