<additional>

   <tlLogic id="1/1" type="actuated" programID="adapted" offset="0">
      <phase duration="31" state="rrrrrGGgrrrrrGGgGrGr" minDur="10" maxDur="50" type="target;decisional" targetLanes="0/1_to_1/1.-100_1 0/1_to_1/1.-100_2 2/1_to_1/1.-100_1 2/1_to_1/1.-100_2"/>
      <phase duration="4"  state="rrrrryygrrrrryygrrrr" type="transient"/>
      <phase duration="6"  state="rrrrrrrGrrrrrrrGrrrr" minDur="2" maxDur="20" type="decisional" targetLanes="0/1_to_1/1.-100_2 2/1_to_1/1.-100_2"/>
      <phase duration="4"  state="rrrrrrryrrrrrrryrrrr" type="transient"/>
      <phase duration="4"  state="rrrrrrrrrrrrrrrrrrrr" type="transient;commit"/>
      <phase duration="31" state="rGGgrrrrrGGgrrrrrGrG" minDur="10" maxDur="50" type="target;decisional" targetLanes="1/0_to_1/1.-100_1 1/0_to_1/1.-100_2 1/2_to_1/1.-100_1 1/2_to_1/1.-100_2"/>
      <phase duration="4"  state="ryygrrrrryygrrrrrrrr" type="transient"/>
      <phase duration="6"  state="rrrGrrrrrrrGrrrrrrrr" minDur="2" maxDur="20" type="decisional" targetLanes="1/0_to_1/1.-100_2 1/2_to_1/1.-100_2"/>
      <phase duration="4"  state="rrryrrrrrrryrrrrrrrr" type="transient"/>
      <phase duration="4"  state="rrrrrrrrrrrrrrrrrrrr" type="transient;commit"/>
   </tlLogic>

   <tlLogic id="2/1" type="actuated" programID="adapted" offset="0">
      <phase duration="31" state="rrrrrGGgrrrrrGGgGrGr" minDur="10" maxDur="50" type="target;decisional" targetLanes="1/1_to_2/1.-100_1 1/1_to_2/1.-100_2 3/1_to_2/1.-100_1 3/1_to_2/1.-100_2"/>
      <phase duration="4"  state="rrrrryygrrrrryygrrrr" type="transient"/>
      <phase duration="6"  state="rrrrrrrGrrrrrrrGrrrr" minDur="2" maxDur="20" type="decisional" targetLanes="1/1_to_2/1.-100_2 3/1_to_2/1.-100_2"/>
      <phase duration="4"  state="rrrrrrryrrrrrrryrrrr" type="transient"/>
      <phase duration="4"  state="rrrrrrrrrrrrrrrrrrrr" type="transient;commit"/>
      <phase duration="31" state="rGGgrrrrrGGgrrrrrGrG" minDur="10" maxDur="50" type="target;decisional" targetLanes="2/0_to_2/1.-100_1 2/0_to_2/1.-100_2 2/2_to_2/1.-100_1 2/2_to_2/1.-100_2"/>
      <phase duration="4"  state="ryygrrrrryygrrrrrrrr" type="transient"/>
      <phase duration="6"  state="rrrGrrrrrrrGrrrrrrrr" minDur="2" maxDur="20" type="decisional" targetLanes="2/0_to_2/1.-100_2 2/2_to_2/1.-100_2"/>
      <phase duration="4"  state="rrryrrrrrrryrrrrrrrr" type="transient"/>
      <phase duration="4"  state="rrrrrrrrrrrrrrrrrrrr" type="transient;commit"/>
   </tlLogic>

   <tlLogic id="3/1" type="actuated" programID="adapted" offset="0">
      <phase duration="31" state="rrrrrGGgrrrrrGGgGrGr" minDur="10" maxDur="50" type="target;decisional" targetLanes="2/1_to_3/1.-100_1 2/1_to_3/1.-100_2 4/1_to_3/1.-100_1 4/1_to_3/1.-100_2"/>
      <phase duration="4"  state="rrrrryygrrrrryygrrrr" type="transient"/>
      <phase duration="6"  state="rrrrrrrGrrrrrrrGrrrr" minDur="2" maxDur="20" type="decisional" targetLanes="2/1_to_3/1.-100_2 4/1_to_3/1.-100_2"/>
      <phase duration="4"  state="rrrrrrryrrrrrrryrrrr" type="transient"/>
      <phase duration="4"  state="rrrrrrrrrrrrrrrrrrrr" type="transient;commit"/>
      <phase duration="31" state="rGGgrrrrrGGgrrrrrGrG" minDur="10" maxDur="50" type="target;decisional" targetLanes="3/0_to_3/1.-100_1 3/0_to_3/1.-100_2 3/2_to_3/1.-100_1 3/2_to_3/1.-100_2"/>
      <phase duration="4"  state="ryygrrrrryygrrrrrrrr" type="transient"/>
      <phase duration="6"  state="rrrGrrrrrrrGrrrrrrrr" minDur="2" maxDur="20" type="decisional" targetLanes="3/0_to_3/1.-100_2 3/2_to_3/1.-100_2"/>
      <phase duration="4"  state="rrryrrrrrrryrrrrrrrr" type="transient"/>
      <phase duration="4"  state="rrrrrrrrrrrrrrrrrrrr" type="transient;commit"/>
   </tlLogic>

   <tlLogic id="4/1" type="actuated" programID="adapted" offset="0">
      <phase duration="31" state="rrrrrGGgrrrrrGGgGrGr" minDur="10" maxDur="50" type="target;decisional" targetLanes="3/1_to_4/1.-100_1 3/1_to_4/1.-100_2 5/1_to_4/1.-100_1 5/1_to_4/1.-100_2"/>
      <phase duration="4"  state="rrrrryygrrrrryygrrrr" type="transient"/>
      <phase duration="6"  state="rrrrrrrGrrrrrrrGrrrr" minDur="2" maxDur="20" type="decisional" targetLanes="3/1_to_4/1.-100_2 5/1_to_4/1.-100_2"/>
      <phase duration="4"  state="rrrrrrryrrrrrrryrrrr" type="transient"/>
      <phase duration="4"  state="rrrrrrrrrrrrrrrrrrrr" type="transient;commit"/>
      <phase duration="31" state="rGGgrrrrrGGgrrrrrGrG" minDur="10" maxDur="50" type="target;decisional" targetLanes="4/0_to_4/1.-100_1 4/0_to_4/1.-100_2 4/2_to_4/1.-100_1 4/2_to_4/1.-100_2"/>
      <phase duration="4"  state="ryygrrrrryygrrrrrrrr" type="transient"/>
      <phase duration="6"  state="rrrGrrrrrrrGrrrrrrrr" minDur="2" maxDur="20" type="decisional" targetLanes="4/0_to_4/1.-100_2 4/2_to_4/1.-100_2"/>
      <phase duration="4"  state="rrryrrrrrrryrrrrrrrr" type="transient"/>
      <phase duration="4"  state="rrrrrrrrrrrrrrrrrrrr" type="transient;commit"/>
   </tlLogic>

   <tlLogic id="1/2" type="actuated" programID="adapted" offset="0">
      <phase duration="31" state="rrrrrGGgrrrrrGGgGrGr" minDur="10" maxDur="50" type="target;decisional" targetLanes="0/2_to_1/2.-100_1 0/2_to_1/2.-100_2 2/2_to_1/2.-100_1 2/2_to_1/2.-100_2"/>
      <phase duration="4"  state="rrrrryygrrrrryygrrrr" type="transient"/>
      <phase duration="6"  state="rrrrrrrGrrrrrrrGrrrr" minDur="2" maxDur="20" type="decisional" targetLanes="0/2_to_1/2.-100_2 2/2_to_1/2.-100_2"/>
      <phase duration="4"  state="rrrrrrryrrrrrrryrrrr" type="transient"/>
      <phase duration="4"  state="rrrrrrrrrrrrrrrrrrrr" type="transient;commit"/>
      <phase duration="31" state="rGGgrrrrrGGgrrrrrGrG" minDur="10" maxDur="50" type="target;decisional" targetLanes="1/1_to_1/2.-100_1 1/1_to_1/2.-100_2 1/3_to_1/2.-100_1 1/3_to_1/2.-100_2"/>
      <phase duration="4"  state="ryygrrrrryygrrrrrrrr" type="transient"/>
      <phase duration="6"  state="rrrGrrrrrrrGrrrrrrrr" minDur="2" maxDur="20" type="decisional" targetLanes="1/1_to_1/2.-100_2 1/3_to_1/2.-100_2"/>
      <phase duration="4"  state="rrryrrrrrrryrrrrrrrr" type="transient"/>
      <phase duration="4"  state="rrrrrrrrrrrrrrrrrrrr" type="transient;commit"/>
   </tlLogic>

   <tlLogic id="2/2" type="actuated" programID="adapted" offset="0">
      <phase duration="31" state="rrrrrGGgrrrrrGGgGrGr" minDur="10" maxDur="50" type="target;decisional" targetLanes="1/2_to_2/2.-100_1 1/2_to_2/2.-100_2 3/2_to_2/2.-100_1 3/2_to_2/2.-100_2"/>
      <phase duration="4"  state="rrrrryygrrrrryygrrrr" type="transient"/>
      <phase duration="6"  state="rrrrrrrGrrrrrrrGrrrr" minDur="2" maxDur="20" type="decisional" targetLanes="1/2_to_2/2.-100_2 3/2_to_2/2.-100_2"/>
      <phase duration="4"  state="rrrrrrryrrrrrrryrrrr" type="transient"/>
      <phase duration="4"  state="rrrrrrrrrrrrrrrrrrrr" type="transient;commit"/>
      <phase duration="31" state="rGGgrrrrrGGgrrrrrGrG" minDur="10" maxDur="50" type="target;decisional" targetLanes="2/1_to_2/2.-100_1 2/1_to_2/2.-100_2 2/3_to_2/2.-100_1 2/3_to_2/2.-100_2"/>
      <phase duration="4"  state="ryygrrrrryygrrrrrrrr" type="transient"/>
      <phase duration="6"  state="rrrGrrrrrrrGrrrrrrrr" minDur="2" maxDur="20" type="decisional" targetLanes="2/1_to_2/2.-100_2 2/3_to_2/2.-100_2"/>
      <phase duration="4"  state="rrryrrrrrrryrrrrrrrr" type="transient"/>
      <phase duration="4"  state="rrrrrrrrrrrrrrrrrrrr" type="transient;commit"/>
   </tlLogic>

   <tlLogic id="3/2" type="actuated" programID="adapted" offset="0">
      <phase duration="31" state="rrrrrGGgrrrrrGGgGrGr" minDur="10" maxDur="50" type="target;decisional" targetLanes="2/2_to_3/2.-100_1 2/2_to_3/2.-100_2 4/2_to_3/2.-100_1 4/2_to_3/2.-100_2"/>
      <phase duration="4"  state="rrrrryygrrrrryygrrrr" type="transient"/>
      <phase duration="6"  state="rrrrrrrGrrrrrrrGrrrr" minDur="2" maxDur="20" type="decisional" targetLanes="2/2_to_3/2.-100_2 4/2_to_3/2.-100_2"/>
      <phase duration="4"  state="rrrrrrryrrrrrrryrrrr" type="transient"/>
      <phase duration="4"  state="rrrrrrrrrrrrrrrrrrrr" type="transient;commit"/>
      <phase duration="31" state="rGGgrrrrrGGgrrrrrGrG" minDur="10" maxDur="50" type="target;decisional" targetLanes="3/1_to_3/2.-100_1 3/1_to_3/2.-100_2 3/3_to_3/2.-100_1 3/3_to_3/2.-100_2"/>
      <phase duration="4"  state="ryygrrrrryygrrrrrrrr" type="transient"/>
      <phase duration="6"  state="rrrGrrrrrrrGrrrrrrrr" minDur="2" maxDur="20" type="decisional" targetLanes="3/1_to_3/2.-100_2 3/3_to_3/2.-100_2"/>
      <phase duration="4"  state="rrryrrrrrrryrrrrrrrr" type="transient"/>
      <phase duration="4"  state="rrrrrrrrrrrrrrrrrrrr" type="transient;commit"/>
   </tlLogic>

   <tlLogic id="4/2" type="actuated" programID="adapted" offset="0">
      <phase duration="31" state="rrrrrGGgrrrrrGGgGrGr" minDur="10" maxDur="50" type="target;decisional" targetLanes="3/2_to_4/2.-100_1 3/2_to_4/2.-100_2 5/2_to_4/2.-100_1 5/2_to_4/2.-100_2"/>
      <phase duration="4"  state="rrrrryygrrrrryygrrrr" type="transient"/>
      <phase duration="6"  state="rrrrrrrGrrrrrrrGrrrr" minDur="2" maxDur="20" type="decisional" targetLanes="3/2_to_4/2.-100_2 5/2_to_4/2.-100_2"/>
      <phase duration="4"  state="rrrrrrryrrrrrrryrrrr" type="transient"/>
      <phase duration="4"  state="rrrrrrrrrrrrrrrrrrrr" type="transient;commit"/>
      <phase duration="31" state="rGGgrrrrrGGgrrrrrGrG" minDur="10" maxDur="50" type="target;decisional" targetLanes="4/1_to_4/2.-100_1 4/1_to_4/2.-100_2 4/3_to_4/2.-100_1 4/3_to_4/2.-100_2"/>
      <phase duration="4"  state="ryygrrrrryygrrrrrrrr" type="transient"/>
      <phase duration="6"  state="rrrGrrrrrrrGrrrrrrrr" minDur="2" maxDur="20" type="decisional" targetLanes="4/1_to_4/2.-100_2 4/3_to_4/2.-100_2"/>
      <phase duration="4"  state="rrryrrrrrrryrrrrrrrr" type="transient"/>
      <phase duration="4"  state="rrrrrrrrrrrrrrrrrrrr" type="transient;commit"/>
   </tlLogic>

   <tlLogic id="1/3" type="actuated" programID="adapted" offset="0">
      <phase duration="31" state="rrrrrGGgrrrrrGGgGrGr" minDur="10" maxDur="50" type="target;decisional" targetLanes="0/3_to_1/3.-100_1 0/3_to_1/3.-100_2 2/3_to_1/3.-100_1 2/3_to_1/3.-100_2"/>
      <phase duration="4"  state="rrrrryygrrrrryygrrrr" type="transient"/>
      <phase duration="6"  state="rrrrrrrGrrrrrrrGrrrr" minDur="2" maxDur="20" type="decisional" targetLanes="0/3_to_1/3.-100_2 2/3_to_1/3.-100_2"/>
      <phase duration="4"  state="rrrrrrryrrrrrrryrrrr" type="transient"/>
      <phase duration="4"  state="rrrrrrrrrrrrrrrrrrrr" type="transient;commit"/>
      <phase duration="31" state="rGGgrrrrrGGgrrrrrGrG" minDur="10" maxDur="50" type="target;decisional" targetLanes="1/2_to_1/3.-100_1 1/2_to_1/3.-100_2 1/4_to_1/3.-100_1 1/4_to_1/3.-100_2"/>
      <phase duration="4"  state="ryygrrrrryygrrrrrrrr" type="transient"/>
      <phase duration="6"  state="rrrGrrrrrrrGrrrrrrrr" minDur="2" maxDur="20" type="decisional" targetLanes="1/2_to_1/3.-100_2 1/4_to_1/3.-100_2"/>
      <phase duration="4"  state="rrryrrrrrrryrrrrrrrr" type="transient"/>
      <phase duration="4"  state="rrrrrrrrrrrrrrrrrrrr" type="transient;commit"/>
   </tlLogic>

   <tlLogic id="2/3" type="actuated" programID="adapted" offset="0">
      <phase duration="31" state="rrrrrGGgrrrrrGGgGrGr" minDur="10" maxDur="50" type="target;decisional" targetLanes="1/3_to_2/3.-100_1 1/3_to_2/3.-100_2 3/3_to_2/3.-100_1 3/3_to_2/3.-100_2"/>
      <phase duration="4"  state="rrrrryygrrrrryygrrrr" type="transient"/>
      <phase duration="6"  state="rrrrrrrGrrrrrrrGrrrr" minDur="2" maxDur="20" type="decisional" targetLanes="1/3_to_2/3.-100_2 3/3_to_2/3.-100_2"/>
      <phase duration="4"  state="rrrrrrryrrrrrrryrrrr" type="transient"/>
      <phase duration="4"  state="rrrrrrrrrrrrrrrrrrrr" type="transient;commit"/>
      <phase duration="31" state="rGGgrrrrrGGgrrrrrGrG" minDur="10" maxDur="50" type="target;decisional" targetLanes="2/2_to_2/3.-100_1 2/2_to_2/3.-100_2 2/4_to_2/3.-100_1 2/4_to_2/3.-100_2"/>
      <phase duration="4"  state="ryygrrrrryygrrrrrrrr" type="transient"/>
      <phase duration="6"  state="rrrGrrrrrrrGrrrrrrrr" minDur="2" maxDur="20" type="decisional" targetLanes="2/2_to_2/3.-100_2 2/4_to_2/3.-100_2"/>
      <phase duration="4"  state="rrryrrrrrrryrrrrrrrr" type="transient"/>
      <phase duration="4"  state="rrrrrrrrrrrrrrrrrrrr" type="transient;commit"/>
   </tlLogic>

   <tlLogic id="3/3" type="actuated" programID="adapted" offset="0">
      <phase duration="31" state="rrrrrGGgrrrrrGGgGrGr" minDur="10" maxDur="50" type="target;decisional" targetLanes="2/3_to_3/3.-100_1 2/3_to_3/3.-100_2 4/3_to_3/3.-100_1 4/3_to_3/3.-100_2"/>
      <phase duration="4"  state="rrrrryygrrrrryygrrrr" type="transient"/>
      <phase duration="6"  state="rrrrrrrGrrrrrrrGrrrr" minDur="2" maxDur="20" type="decisional" targetLanes="2/3_to_3/3.-100_2 4/3_to_3/3.-100_2"/>
      <phase duration="4"  state="rrrrrrryrrrrrrryrrrr" type="transient"/>
      <phase duration="4"  state="rrrrrrrrrrrrrrrrrrrr" type="transient;commit"/>
      <phase duration="31" state="rGGgrrrrrGGgrrrrrGrG" minDur="10" maxDur="50" type="target;decisional" targetLanes="3/2_to_3/3.-100_1 3/2_to_3/3.-100_2 3/4_to_3/3.-100_1 3/4_to_3/3.-100_2"/>
      <phase duration="4"  state="ryygrrrrryygrrrrrrrr" type="transient"/>
      <phase duration="6"  state="rrrGrrrrrrrGrrrrrrrr" minDur="2" maxDur="20" type="decisional" targetLanes="3/2_to_3/3.-100_2 3/4_to_3/3.-100_2"/>
      <phase duration="4"  state="rrryrrrrrrryrrrrrrrr" type="transient"/>
      <phase duration="4"  state="rrrrrrrrrrrrrrrrrrrr" type="transient;commit"/>
   </tlLogic>

   <tlLogic id="4/3" type="actuated" programID="adapted" offset="0">
      <phase duration="31" state="rrrrrGGgrrrrrGGgGrGr" minDur="10" maxDur="50" type="target;decisional" targetLanes="3/3_to_4/3.-100_1 3/3_to_4/3.-100_2 5/3_to_4/3.-100_1 5/3_to_4/3.-100_2"/>
      <phase duration="4"  state="rrrrryygrrrrryygrrrr" type="transient"/>
      <phase duration="6"  state="rrrrrrrGrrrrrrrGrrrr" minDur="2" maxDur="20" type="decisional" targetLanes="3/3_to_4/3.-100_2 5/3_to_4/3.-100_2"/>
      <phase duration="4"  state="rrrrrrryrrrrrrryrrrr" type="transient"/>
      <phase duration="4"  state="rrrrrrrrrrrrrrrrrrrr" type="transient;commit"/>
      <phase duration="31" state="rGGgrrrrrGGgrrrrrGrG" minDur="10" maxDur="50" type="target;decisional" targetLanes="4/2_to_4/3.-100_1 4/2_to_4/3.-100_2 4/4_to_4/3.-100_1 4/4_to_4/3.-100_2"/>
      <phase duration="4"  state="ryygrrrrryygrrrrrrrr" type="transient"/>
      <phase duration="6"  state="rrrGrrrrrrrGrrrrrrrr" minDur="2" maxDur="20" type="decisional" targetLanes="4/2_to_4/3.-100_2 4/4_to_4/3.-100_2"/>
      <phase duration="4"  state="rrryrrrrrrryrrrrrrrr" type="transient"/>
      <phase duration="4"  state="rrrrrrrrrrrrrrrrrrrr" type="transient;commit"/>
   </tlLogic>

   <tlLogic id="1/4" type="actuated" programID="adapted" offset="0">
      <phase duration="31" state="rrrrrGGgrrrrrGGgGrGr" minDur="10" maxDur="50" type="target;decisional" targetLanes="0/4_to_1/4.-100_1 0/4_to_1/4.-100_2 2/4_to_1/4.-100_1 2/4_to_1/4.-100_2"/>
      <phase duration="4"  state="rrrrryygrrrrryygrrrr" type="transient"/>
      <phase duration="6"  state="rrrrrrrGrrrrrrrGrrrr" minDur="2" maxDur="20" type="decisional" targetLanes="0/4_to_1/4.-100_2 2/4_to_1/4.-100_2"/>
      <phase duration="4"  state="rrrrrrryrrrrrrryrrrr" type="transient"/>
      <phase duration="4"  state="rrrrrrrrrrrrrrrrrrrr" type="transient;commit"/>
      <phase duration="31" state="rGGgrrrrrGGgrrrrrGrG" minDur="10" maxDur="50" type="target;decisional" targetLanes="1/3_to_1/4.-100_1 1/3_to_1/4.-100_2 1/5_to_1/4.-100_1 1/5_to_1/4.-100_2"/>
      <phase duration="4"  state="ryygrrrrryygrrrrrrrr" type="transient"/>
      <phase duration="6"  state="rrrGrrrrrrrGrrrrrrrr" minDur="2" maxDur="20" type="decisional" targetLanes="1/3_to_1/4.-100_2 1/5_to_1/4.-100_2"/>
      <phase duration="4"  state="rrryrrrrrrryrrrrrrrr" type="transient"/>
      <phase duration="4"  state="rrrrrrrrrrrrrrrrrrrr" type="transient;commit"/>
   </tlLogic>

   <tlLogic id="2/4" type="actuated" programID="adapted" offset="0">
      <phase duration="31" state="rrrrrGGgrrrrrGGgGrGr" minDur="10" maxDur="50" type="target;decisional" targetLanes="1/4_to_2/4.-100_1 1/4_to_2/4.-100_2 3/4_to_2/4.-100_1 3/4_to_2/4.-100_2"/>
      <phase duration="4"  state="rrrrryygrrrrryygrrrr" type="transient"/>
      <phase duration="6"  state="rrrrrrrGrrrrrrrGrrrr" minDur="2" maxDur="20" type="decisional" targetLanes="1/4_to_2/4.-100_2 3/4_to_2/4.-100_2"/>
      <phase duration="4"  state="rrrrrrryrrrrrrryrrrr" type="transient"/>
      <phase duration="4"  state="rrrrrrrrrrrrrrrrrrrr" type="transient;commit"/>
      <phase duration="31" state="rGGgrrrrrGGgrrrrrGrG" minDur="10" maxDur="50" type="target;decisional" targetLanes="2/3_to_2/4.-100_1 2/3_to_2/4.-100_2 2/5_to_2/4.-100_1 2/5_to_2/4.-100_2"/>
      <phase duration="4"  state="ryygrrrrryygrrrrrrrr" type="transient"/>
      <phase duration="6"  state="rrrGrrrrrrrGrrrrrrrr" minDur="2" maxDur="20" type="decisional" targetLanes="2/3_to_2/4.-100_2 2/5_to_2/4.-100_2"/>
      <phase duration="4"  state="rrryrrrrrrryrrrrrrrr" type="transient"/>
      <phase duration="4"  state="rrrrrrrrrrrrrrrrrrrr" type="transient;commit"/>
   </tlLogic>

   <tlLogic id="3/4" type="actuated" programID="adapted" offset="0">
      <phase duration="31" state="rrrrrGGgrrrrrGGgGrGr" minDur="10" maxDur="50" type="target;decisional" targetLanes="2/4_to_3/4.-100_1 2/4_to_3/4.-100_2 4/4_to_3/4.-100_1 4/4_to_3/4.-100_2"/>
      <phase duration="4"  state="rrrrryygrrrrryygrrrr" type="transient"/>
      <phase duration="6"  state="rrrrrrrGrrrrrrrGrrrr" minDur="2" maxDur="20" type="decisional" targetLanes="2/4_to_3/4.-100_2 4/4_to_3/4.-100_2"/>
      <phase duration="4"  state="rrrrrrryrrrrrrryrrrr" type="transient"/>
      <phase duration="4"  state="rrrrrrrrrrrrrrrrrrrr" type="transient;commit"/>
      <phase duration="31" state="rGGgrrrrrGGgrrrrrGrG" minDur="10" maxDur="50" type="target;decisional" targetLanes="3/3_to_3/4.-100_1 3/3_to_3/4.-100_2 3/5_to_3/4.-100_1 3/5_to_3/4.-100_2"/>
      <phase duration="4"  state="ryygrrrrryygrrrrrrrr" type="transient"/>
      <phase duration="6"  state="rrrGrrrrrrrGrrrrrrrr" minDur="2" maxDur="20" type="decisional" targetLanes="3/3_to_3/4.-100_2 3/5_to_3/4.-100_2"/>
      <phase duration="4"  state="rrryrrrrrrryrrrrrrrr" type="transient"/>
      <phase duration="4"  state="rrrrrrrrrrrrrrrrrrrr" type="transient;commit"/>
   </tlLogic>

   <tlLogic id="4/4" type="actuated" programID="adapted" offset="0">
      <phase duration="31" state="rrrrrGGgrrrrrGGgGrGr" minDur="10" maxDur="50" type="target;decisional" targetLanes="3/4_to_4/4.-100_1 3/4_to_4/4.-100_2 5/4_to_4/4.-100_1 5/4_to_4/4.-100_2"/>
      <phase duration="4"  state="rrrrryygrrrrryygrrrr" type="transient"/>
      <phase duration="6"  state="rrrrrrrGrrrrrrrGrrrr" minDur="2" maxDur="20" type="decisional" targetLanes="3/4_to_4/4.-100_2 5/4_to_4/4.-100_2"/>
      <phase duration="4"  state="rrrrrrryrrrrrrryrrrr" type="transient"/>
      <phase duration="4"  state="rrrrrrrrrrrrrrrrrrrr" type="transient;commit"/>
      <phase duration="31" state="rGGgrrrrrGGgrrrrrGrG" minDur="10" maxDur="50" type="target;decisional" targetLanes="4/3_to_4/4.-100_1 4/3_to_4/4.-100_2 4/5_to_4/4.-100_1 4/5_to_4/4.-100_2"/>
      <phase duration="4"  state="ryygrrrrryygrrrrrrrr" type="transient"/>
      <phase duration="6"  state="rrrGrrrrrrrGrrrrrrrr" minDur="2" maxDur="20" type="decisional" targetLanes="4/3_to_4/4.-100_2 4/5_to_4/4.-100_2"/>
      <phase duration="4"  state="rrryrrrrrrryrrrrrrrr" type="transient"/>
      <phase duration="4"  state="rrrrrrrrrrrrrrrrrrrr" type="transient;commit"/>
   </tlLogic>

</additional>
