<?xml version="1.0" encoding="UTF-8"?>

<!-- generated on Tue Mar  3 12:43:25 2020 by Eclipse SUMO netconvert Version v1_5_0+0340-c5c5ce5a4d
<configuration xmlns:xsi="http://www.w3.org/2001/XMLSchema-instance" xsi:noNamespaceSchemaLocation="http://sumo.dlr.de/xsd/netconvertConfiguration.xsd">

    <input>
        <opendrive-files value="Town01.xodr"/>
    </input>

    <output>
        <output-file value="Town01.net.xml"/>
    </output>

    <processing>
        <geometry.remove value="true"/>
        <geometry.min-radius.fix value="true"/>
        <geometry.max-grade.fix value="false"/>
    </processing>

    <tls_building>
        <tls.left-green.time value="0"/>
    </tls_building>

    <junctions>
        <rectangular-lane-cut value="true"/>
    </junctions>

    <report>
        <aggregate-warnings value="5"/>
    </report>

</configuration>
-->

<net version="1.6" junctionCornerDetail="5" rectangularLaneCut="true" limitTurnSpeed="5.50" xmlns:xsi="http://www.w3.org/2001/XMLSchema-instance" xsi:noNamespaceSchemaLocation="http://sumo.dlr.de/xsd/net_file.xsd">

    <location netOffset="0.06,328.61" convBoundary="0.00,0.00,394.44,328.66" origBoundary="-0.06,-328.61,394.38,0.05" projParameter="!"/>

    <type id="bidirectional" priority="1" speed="1.39" disallow="pedestrian tram rail_urban rail rail_electric rail_fast ship" width="3.65"/>
    <type id="border" priority="0" speed="1.39" disallow="all" discard="1" width="0.10"/>
    <type id="driving" priority="1" speed="13.89" disallow="pedestrian tram rail_urban rail rail_electric rail_fast ship" width="3.65"/>
    <type id="entry" priority="1" speed="22.22" disallow="pedestrian tram rail_urban rail rail_electric rail_fast ship" width="3.65"/>
    <type id="exit" priority="1" speed="22.22" disallow="pedestrian tram rail_urban rail rail_electric rail_fast ship" width="3.65"/>
    <type id="median" priority="0" speed="1.39" disallow="all" discard="1" width="0.10"/>
    <type id="mwyEntry" priority="1" speed="22.22" allow="private emergency authority army vip passenger hov taxi bus coach delivery truck trailer motorcycle evehicle custom1 custom2" width="3.65"/>
    <type id="mwyExit" priority="1" speed="22.22" allow="private emergency authority army vip passenger hov taxi bus coach delivery truck trailer motorcycle evehicle custom1 custom2" width="3.65"/>
    <type id="none" priority="0" speed="1.39" disallow="all" discard="1" width="1.00"/>
    <type id="offRamp" priority="1" speed="22.22" allow="private emergency authority army vip passenger hov taxi bus coach delivery truck trailer motorcycle evehicle custom1 custom2" width="3.65"/>
    <type id="onRamp" priority="1" speed="22.22" allow="private emergency authority army vip passenger hov taxi bus coach delivery truck trailer motorcycle evehicle custom1 custom2" width="3.65"/>
    <type id="parking" priority="1" speed="1.39" disallow="pedestrian tram rail_urban rail rail_electric rail_fast ship" width="2.50"/>
    <type id="rail" priority="3" speed="33.33" allow="rail_urban rail rail_electric rail_fast" width="3.65"/>
    <type id="restricted" priority="0" speed="13.89" disallow="all" width="3.65"/>
    <type id="roadWorks" priority="0" speed="1.39" allow="authority" width="3.65"/>
    <type id="shoulder" priority="0" speed="1.39" disallow="all" discard="1" width="1.00"/>
    <type id="special1" priority="1" speed="22.22" allow="custom1" discard="1" width="3.65"/>
    <type id="special2" priority="1" speed="22.22" allow="custom2" discard="1" width="3.65"/>
    <type id="special3" priority="1" speed="22.22" allow="custom1 custom2" discard="1" width="3.65"/>
    <type id="stop" priority="1" speed="13.89" disallow="pedestrian tram rail_urban rail rail_electric rail_fast ship" width="3.65"/>
    <type id="tram" priority="2" speed="13.89" allow="tram" width="3.65"/>

    <edge id=":111_0" function="internal">
        <lane id=":111_0_0" index="0" disallow="pedestrian tram rail_urban rail rail_electric rail_fast ship" speed="8.22" length="14.76" width="4.00" shape="334.93,282.20 334.35,278.23 332.62,275.40 329.73,273.71 325.69,273.14"/>
    </edge>
    <edge id=":111_1" function="internal">
        <lane id=":111_1_0" index="0" disallow="pedestrian tram rail_urban rail rail_electric rail_fast ship" speed="13.89" length="22.62" width="4.00" shape="334.93,282.20 334.92,259.58"/>
    </edge>
    <edge id=":111_2" function="internal">
        <lane id=":111_2_0" index="0" disallow="pedestrian tram rail_urban rail rail_electric rail_fast ship" speed="13.89" length="22.62" width="4.00" shape="338.92,259.58 338.93,282.19"/>
    </edge>
    <edge id=":111_3" function="internal">
        <lane id=":111_3_0" index="0" disallow="pedestrian tram rail_urban rail rail_electric rail_fast ship" speed="9.81" length="8.31" width="4.00" shape="338.92,259.58 338.09,265.51 336.92,267.51"/>
    </edge>
    <edge id=":111_6" function="internal">
        <lane id=":111_6_0" index="0" disallow="pedestrian tram rail_urban rail rail_electric rail_fast ship" speed="9.81" length="13.30" width="4.00" shape="336.92,267.51 335.61,269.75 331.48,272.29 325.69,273.14"/>
    </edge>
    <edge id=":111_4" function="internal">
        <lane id=":111_4_0" index="0" disallow="pedestrian tram rail_urban rail rail_electric rail_fast ship" speed="8.32" length="15.16" width="4.00" shape="325.69,269.14 329.73,268.54 332.61,266.75 334.34,263.76 334.92,259.58"/>
    </edge>
    <edge id=":111_5" function="internal">
        <lane id=":111_5_0" index="0" disallow="pedestrian tram rail_urban rail rail_electric rail_fast ship" speed="9.73" length="21.20" width="4.00" shape="325.69,269.14 331.48,269.96 335.62,272.40 338.10,276.48 338.93,282.19"/>
    </edge>
    <edge id=":128_0" function="internal">
        <lane id=":128_0_0" index="0" disallow="pedestrian tram rail_urban rail rail_electric rail_fast ship" speed="13.89" length="22.00" width="4.00" shape="88.46,142.28 88.46,120.28"/>
    </edge>
    <edge id=":128_1" function="internal">
        <lane id=":128_1_0" index="0" disallow="pedestrian tram rail_urban rail rail_electric rail_fast ship" speed="9.65" length="7.94" width="4.00" shape="88.46,142.28 89.27,136.68 90.46,134.73"/>
    </edge>
    <edge id=":128_6" function="internal">
        <lane id=":128_6_0" index="0" disallow="pedestrian tram rail_urban rail rail_electric rail_fast ship" speed="9.65" length="12.89" width="4.00" shape="90.46,134.73 91.72,132.67 95.79,130.27 101.48,129.47"/>
    </edge>
    <edge id=":128_2" function="internal">
        <lane id=":128_2_0" index="0" disallow="pedestrian tram rail_urban rail rail_electric rail_fast ship" speed="8.12" length="14.39" width="4.00" shape="101.49,133.47 97.54,134.02 94.72,135.67 93.02,138.43 92.46,142.29"/>
    </edge>
    <edge id=":128_3" function="internal">
        <lane id=":128_3_0" index="0" disallow="pedestrian tram rail_urban rail rail_electric rail_fast ship" speed="9.71" length="21.13" width="4.00" shape="101.49,133.47 95.79,132.65 91.72,130.17 89.27,126.05 88.46,120.28"/>
    </edge>
    <edge id=":128_4" function="internal">
        <lane id=":128_4_0" index="0" disallow="pedestrian tram rail_urban rail rail_electric rail_fast ship" speed="8.20" length="14.68" width="4.00" shape="92.46,120.28 93.03,124.30 94.72,127.17 97.54,128.90 101.48,129.47"/>
    </edge>
    <edge id=":128_5" function="internal">
        <lane id=":128_5_0" index="0" disallow="pedestrian tram rail_urban rail rail_electric rail_fast ship" speed="13.89" length="22.00" width="4.00" shape="92.46,120.28 92.46,142.29"/>
    </edge>
    <edge id=":139_0" function="internal">
        <lane id=":139_0_0" index="0" disallow="pedestrian tram rail_urban rail rail_electric rail_fast ship" speed="8.18" length="14.62" width="4.00" shape="334.89,208.03 334.31,204.12 332.59,201.33 329.72,199.65 325.70,199.09"/>
    </edge>
    <edge id=":139_1" function="internal">
        <lane id=":139_1_0" index="0" disallow="pedestrian tram rail_urban rail rail_electric rail_fast ship" speed="13.89" length="23.09" width="4.00" shape="334.89,208.03 334.87,184.94"/>
    </edge>
    <edge id=":139_2" function="internal">
        <lane id=":139_2_0" index="0" disallow="pedestrian tram rail_urban rail rail_electric rail_fast ship" speed="13.89" length="23.09" width="4.00" shape="338.87,184.94 338.89,208.03"/>
    </edge>
    <edge id=":139_3" function="internal">
        <lane id=":139_3_0" index="0" disallow="pedestrian tram rail_urban rail rail_electric rail_fast ship" speed="9.91" length="8.65" width="4.00" shape="338.87,184.94 338.05,191.13 336.88,193.24"/>
    </edge>
    <edge id=":139_6" function="internal">
        <lane id=":139_6_0" index="0" disallow="pedestrian tram rail_urban rail rail_electric rail_fast ship" speed="9.91" length="13.39" width="4.00" shape="336.88,193.24 335.58,195.55 331.46,198.21 325.70,199.09"/>
    </edge>
    <edge id=":139_4" function="internal">
        <lane id=":139_4_0" index="0" disallow="pedestrian tram rail_urban rail rail_electric rail_fast ship" speed="8.43" length="15.59" width="4.00" shape="325.69,195.09 329.71,194.46 332.58,192.56 334.30,189.38 334.87,184.94"/>
    </edge>
    <edge id=":139_5" function="internal">
        <lane id=":139_5_0" index="0" disallow="pedestrian tram rail_urban rail rail_electric rail_fast ship" speed="9.70" length="21.07" width="4.00" shape="325.69,195.09 331.46,195.90 335.59,198.33 338.06,202.37 338.89,208.03"/>
    </edge>
    <edge id=":156_0" function="internal">
        <lane id=":156_0_0" index="0" disallow="pedestrian tram rail_urban rail rail_electric rail_fast ship" speed="13.89" length="22.00" width="4.00" shape="88.45,208.77 88.45,186.77"/>
    </edge>
    <edge id=":156_1" function="internal">
        <lane id=":156_1_0" index="0" disallow="pedestrian tram rail_urban rail rail_electric rail_fast ship" speed="9.78" length="8.37" width="4.00" shape="88.45,208.77 89.26,202.84 90.45,200.78"/>
    </edge>
    <edge id=":156_6" function="internal">
        <lane id=":156_6_0" index="0" disallow="pedestrian tram rail_urban rail rail_electric rail_fast ship" speed="9.78" length="13.09" width="4.00" shape="90.45,200.78 91.71,198.59 95.78,196.05 101.48,195.20"/>
    </edge>
    <edge id=":156_2" function="internal">
        <lane id=":156_2_0" index="0" disallow="pedestrian tram rail_urban rail rail_electric rail_fast ship" speed="8.28" length="15.01" width="4.00" shape="101.48,199.20 97.53,199.80 94.71,201.59 93.01,204.59 92.45,208.77"/>
    </edge>
    <edge id=":156_3" function="internal">
        <lane id=":156_3_0" index="0" disallow="pedestrian tram rail_urban rail rail_electric rail_fast ship" speed="9.58" length="20.53" width="4.00" shape="101.48,199.20 95.78,198.42 91.71,196.09 89.27,192.21 88.45,186.77"/>
    </edge>
    <edge id=":156_4" function="internal">
        <lane id=":156_4_0" index="0" disallow="pedestrian tram rail_urban rail rail_electric rail_fast ship" speed="8.04" length="14.07" width="4.00" shape="92.45,186.77 93.02,190.46 94.71,193.09 97.53,194.67 101.48,195.20"/>
    </edge>
    <edge id=":156_5" function="internal">
        <lane id=":156_5_0" index="0" disallow="pedestrian tram rail_urban rail rail_electric rail_fast ship" speed="13.89" length="22.00" width="4.00" shape="92.45,186.77 92.45,208.77"/>
    </edge>
    <edge id=":167_0" function="internal">
        <lane id=":167_0_0" index="0" disallow="pedestrian tram rail_urban rail rail_electric rail_fast ship" speed="8.23" length="14.78" width="4.00" shape="154.08,282.42 153.51,278.35 151.82,275.44 149.00,273.70 145.05,273.12"/>
    </edge>
    <edge id=":167_1" function="internal">
        <lane id=":167_1_0" index="0" disallow="pedestrian tram rail_urban rail rail_electric rail_fast ship" speed="9.75" length="21.33" width="4.00" shape="154.08,282.42 154.90,276.60 157.36,272.44 161.47,269.95 167.23,269.12"/>
    </edge>
    <edge id=":167_2" function="internal">
        <lane id=":167_2_0" index="0" disallow="pedestrian tram rail_urban rail rail_electric rail_fast ship" speed="8.24" length="14.87" width="4.00" shape="167.23,273.12 163.23,273.70 160.37,275.44 158.65,278.35 158.08,282.41"/>
    </edge>
    <edge id=":167_3" function="internal">
        <lane id=":167_3_0" index="0" disallow="pedestrian tram rail_urban rail rail_electric rail_fast ship" speed="13.89" length="22.18" width="4.00" shape="167.23,273.12 145.05,273.12"/>
    </edge>
    <edge id=":167_4" function="internal">
        <lane id=":167_4_0" index="0" disallow="pedestrian tram rail_urban rail rail_electric rail_fast ship" speed="13.89" length="22.18" width="4.00" shape="145.05,269.12 167.23,269.12"/>
    </edge>
    <edge id=":167_5" function="internal">
        <lane id=":167_5_0" index="0" disallow="pedestrian tram rail_urban rail rail_electric rail_fast ship" speed="9.74" length="8.00" width="4.00" shape="145.05,269.12 150.75,269.95 152.66,271.12"/>
    </edge>
    <edge id=":167_6" function="internal">
        <lane id=":167_6_0" index="0" disallow="pedestrian tram rail_urban rail rail_electric rail_fast ship" speed="9.74" length="13.23" width="4.00" shape="152.66,271.12 154.82,272.44 157.26,276.59 158.08,282.41"/>
    </edge>
    <edge id=":184_0" function="internal">
        <lane id=":184_0_0" index="0" disallow="pedestrian tram rail_urban rail rail_electric rail_fast ship" speed="13.89" length="22.00" width="4.00" shape="88.44,282.46 88.44,260.46"/>
    </edge>
    <edge id=":184_1" function="internal">
        <lane id=":184_1_0" index="0" disallow="pedestrian tram rail_urban rail rail_electric rail_fast ship" speed="9.74" length="8.25" width="4.00" shape="88.44,282.46 89.25,276.62 90.44,274.59"/>
    </edge>
    <edge id=":184_6" function="internal">
        <lane id=":184_6_0" index="0" disallow="pedestrian tram rail_urban rail rail_electric rail_fast ship" speed="9.74" length="13.01" width="4.00" shape="90.44,274.59 91.69,272.45 95.76,269.94 101.45,269.11"/>
    </edge>
    <edge id=":184_2" function="internal">
        <lane id=":184_2_0" index="0" disallow="pedestrian tram rail_urban rail rail_electric rail_fast ship" speed="8.23" length="14.80" width="4.00" shape="101.45,273.11 97.51,273.69 94.69,275.45 93.00,278.37 92.44,282.46"/>
    </edge>
    <edge id=":184_3" function="internal">
        <lane id=":184_3_0" index="0" disallow="pedestrian tram rail_urban rail rail_electric rail_fast ship" speed="9.62" length="20.70" width="4.00" shape="101.45,273.11 95.76,272.32 91.69,269.95 89.25,265.99 88.44,260.46"/>
    </edge>
    <edge id=":184_4" function="internal">
        <lane id=":184_4_0" index="0" disallow="pedestrian tram rail_urban rail rail_electric rail_fast ship" speed="8.08" length="14.25" width="4.00" shape="92.44,260.46 93.00,264.24 94.69,266.95 97.51,268.57 101.45,269.11"/>
    </edge>
    <edge id=":184_5" function="internal">
        <lane id=":184_5_0" index="0" disallow="pedestrian tram rail_urban rail rail_electric rail_fast ship" speed="13.89" length="22.00" width="4.00" shape="92.44,260.46 92.44,282.46"/>
    </edge>
    <edge id=":195_0" function="internal">
        <lane id=":195_0_0" index="0" disallow="pedestrian tram rail_urban rail rail_electric rail_fast ship" speed="8.21" length="14.74" width="4.00" shape="88.48,11.31 87.92,7.25 86.23,4.35 83.41,2.61 79.47,2.03"/>
    </edge>
    <edge id=":195_1" function="internal">
        <lane id=":195_1_0" index="0" disallow="pedestrian tram rail_urban rail rail_electric rail_fast ship" speed="9.76" length="21.35" width="4.00" shape="88.48,11.31 89.30,5.50 91.78,1.35 95.90,-1.15 101.68,-1.98"/>
    </edge>
    <edge id=":195_2" function="internal">
        <lane id=":195_2_0" index="0" disallow="pedestrian tram rail_urban rail rail_electric rail_fast ship" speed="8.26" length="14.91" width="4.00" shape="101.68,2.02 97.65,2.60 94.78,4.35 93.05,7.25 92.48,11.31"/>
    </edge>
    <edge id=":195_3" function="internal">
        <lane id=":195_3_0" index="0" disallow="pedestrian tram rail_urban rail rail_electric rail_fast ship" speed="13.89" length="22.21" width="4.00" shape="101.68,2.02 79.47,2.03"/>
    </edge>
    <edge id=":195_4" function="internal">
        <lane id=":195_4_0" index="0" disallow="pedestrian tram rail_urban rail rail_electric rail_fast ship" speed="13.89" length="22.21" width="4.00" shape="79.47,-1.97 101.68,-1.98"/>
    </edge>
    <edge id=":195_5" function="internal">
        <lane id=":195_5_0" index="0" disallow="pedestrian tram rail_urban rail rail_electric rail_fast ship" speed="9.72" length="7.99" width="4.00" shape="79.47,-1.97 85.16,-1.14 87.07,0.03"/>
    </edge>
    <edge id=":195_6" function="internal">
        <lane id=":195_6_0" index="0" disallow="pedestrian tram rail_urban rail rail_electric rail_fast ship" speed="9.72" length="13.21" width="4.00" shape="87.07,0.03 89.23,1.35 91.67,5.50 92.48,11.31"/>
    </edge>
    <edge id=":26_0" function="internal">
        <lane id=":26_0_0" index="0" disallow="pedestrian tram rail_urban rail rail_electric rail_fast ship" speed="13.89" length="23.13" width="4.00" shape="168.14,330.65 145.02,330.66"/>
    </edge>
    <edge id=":26_1" function="internal">
        <lane id=":26_1_0" index="0" disallow="pedestrian tram rail_urban rail rail_electric rail_fast ship" speed="9.81" length="8.69" width="4.00" shape="168.14,330.65 162.02,329.86 159.81,328.65"/>
    </edge>
    <edge id=":26_6" function="internal">
        <lane id=":26_6_0" index="0" disallow="pedestrian tram rail_urban rail rail_electric rail_fast ship" speed="9.81" length="12.90" width="4.00" shape="159.81,328.65 157.64,327.47 155.01,323.48 154.13,317.90"/>
    </edge>
    <edge id=":26_2" function="internal">
        <lane id=":26_2_0" index="0" disallow="pedestrian tram rail_urban rail rail_electric rail_fast ship" speed="8.32" length="15.15" width="4.00" shape="158.13,317.90 158.76,321.73 160.64,324.46 163.76,326.11 168.14,326.65"/>
    </edge>
    <edge id=":26_3" function="internal">
        <lane id=":26_3_0" index="0" disallow="pedestrian tram rail_urban rail rail_electric rail_fast ship" speed="9.65" length="20.87" width="4.00" shape="158.13,317.90 157.31,323.48 154.86,327.47 150.76,329.86 145.02,330.66"/>
    </edge>
    <edge id=":26_4" function="internal">
        <lane id=":26_4_0" index="0" disallow="pedestrian tram rail_urban rail rail_electric rail_fast ship" speed="8.12" length="14.41" width="4.00" shape="145.02,326.66 149.01,326.11 151.85,324.47 153.56,321.73 154.13,317.90"/>
    </edge>
    <edge id=":26_5" function="internal">
        <lane id=":26_5_0" index="0" disallow="pedestrian tram rail_urban rail rail_electric rail_fast ship" speed="13.89" length="23.13" width="4.00" shape="145.02,326.66 168.14,326.65"/>
    </edge>
    <edge id=":43_0" function="internal">
        <lane id=":43_0_0" index="0" disallow="pedestrian tram rail_urban rail rail_electric rail_fast ship" speed="13.89" length="22.60" width="4.00" shape="348.29,330.61 325.69,330.62"/>
    </edge>
    <edge id=":43_1" function="internal">
        <lane id=":43_1_0" index="0" disallow="pedestrian tram rail_urban rail rail_electric rail_fast ship" speed="9.70" length="8.29" width="4.00" shape="348.29,330.61 342.46,329.81 340.37,328.61"/>
    </edge>
    <edge id=":43_6" function="internal">
        <lane id=":43_6_0" index="0" disallow="pedestrian tram rail_urban rail rail_electric rail_fast ship" speed="9.70" length="12.78" width="4.00" shape="340.37,328.61 338.29,327.41 335.79,323.42 334.95,317.82"/>
    </edge>
    <edge id=":43_2" function="internal">
        <lane id=":43_2_0" index="0" disallow="pedestrian tram rail_urban rail rail_electric rail_fast ship" speed="8.18" length="14.62" width="4.00" shape="338.95,317.81 339.54,321.66 341.29,324.41 344.21,326.06 348.29,326.61"/>
    </edge>
    <edge id=":43_3" function="internal">
        <lane id=":43_3_0" index="0" disallow="pedestrian tram rail_urban rail rail_electric rail_fast ship" speed="9.69" length="21.02" width="4.00" shape="338.95,317.81 338.13,323.42 335.64,327.42 331.49,329.82 325.69,330.62"/>
    </edge>
    <edge id=":43_4" function="internal">
        <lane id=":43_4_0" index="0" disallow="pedestrian tram rail_urban rail rail_electric rail_fast ship" speed="8.17" length="14.57" width="4.00" shape="325.69,326.62 329.74,326.07 332.64,324.42 334.38,321.67 334.95,317.82"/>
    </edge>
    <edge id=":43_5" function="internal">
        <lane id=":43_5_0" index="0" disallow="pedestrian tram rail_urban rail rail_electric rail_fast ship" speed="13.89" length="22.60" width="4.00" shape="325.69,326.62 348.29,326.61"/>
    </edge>
    <edge id=":60_0" function="internal">
        <lane id=":60_0_0" index="0" disallow="pedestrian tram rail_urban rail rail_electric rail_fast ship" speed="8.19" length="14.63" width="4.00" shape="334.77,11.16 334.20,7.15 332.52,4.29 329.71,2.57 325.78,2.00"/>
    </edge>
    <edge id=":60_1" function="internal">
        <lane id=":60_1_0" index="0" disallow="pedestrian tram rail_urban rail rail_electric rail_fast ship" speed="9.70" length="21.12" width="4.00" shape="334.77,11.16 335.58,5.40 338.02,1.29 342.09,-1.18 347.79,-2.00"/>
    </edge>
    <edge id=":60_2" function="internal">
        <lane id=":60_2_0" index="0" disallow="pedestrian tram rail_urban rail rail_electric rail_fast ship" speed="8.19" length="14.66" width="4.00" shape="347.79,2.00 343.84,2.57 341.02,4.29 339.33,7.15 338.77,11.16"/>
    </edge>
    <edge id=":60_3" function="internal">
        <lane id=":60_3_0" index="0" disallow="pedestrian tram rail_urban rail rail_electric rail_fast ship" speed="13.89" length="22.01" width="4.00" shape="347.79,2.00 325.78,2.00"/>
    </edge>
    <edge id=":60_4" function="internal">
        <lane id=":60_4_0" index="0" disallow="pedestrian tram rail_urban rail rail_electric rail_fast ship" speed="13.89" length="22.01" width="4.00" shape="325.78,-2.00 347.79,-2.00"/>
    </edge>
    <edge id=":60_5" function="internal">
        <lane id=":60_5_0" index="0" disallow="pedestrian tram rail_urban rail rail_electric rail_fast ship" speed="9.70" length="8.00" width="4.00" shape="325.78,-2.00 331.46,-1.18 333.40,0.00"/>
    </edge>
    <edge id=":60_6" function="internal">
        <lane id=":60_6_0" index="0" disallow="pedestrian tram rail_urban rail rail_electric rail_fast ship" speed="9.70" length="13.07" width="4.00" shape="333.40,0.00 335.52,1.29 337.95,5.40 338.77,11.16"/>
    </edge>
    <edge id=":77_0" function="internal">
        <lane id=":77_0_0" index="0" disallow="pedestrian tram rail_urban rail rail_electric rail_fast ship" speed="13.89" length="23.32" width="4.00" shape="102.75,330.66 79.44,330.65"/>
    </edge>
    <edge id=":77_1" function="internal">
        <lane id=":77_1_0" index="0" disallow="pedestrian tram rail_urban rail rail_electric rail_fast ship" speed="9.86" length="8.88" width="4.00" shape="102.75,330.66 96.49,329.86 94.22,328.66"/>
    </edge>
    <edge id=":77_6" function="internal">
        <lane id=":77_6_0" index="0" disallow="pedestrian tram rail_urban rail rail_electric rail_fast ship" speed="9.86" length="12.94" width="4.00" shape="94.22,328.66 92.01,327.48 89.33,323.50 88.43,317.94"/>
    </edge>
    <edge id=":77_2" function="internal">
        <lane id=":77_2_0" index="0" disallow="pedestrian tram rail_urban rail rail_electric rail_fast ship" speed="8.37" length="15.37" width="4.00" shape="92.43,317.94 93.08,321.76 95.01,324.48 98.24,326.11 102.75,326.66"/>
    </edge>
    <edge id=":77_3" function="internal">
        <lane id=":77_3_0" index="0" disallow="pedestrian tram rail_urban rail rail_electric rail_fast ship" speed="9.62" length="20.73" width="4.00" shape="92.43,317.94 91.62,323.51 89.18,327.48 85.12,329.86 79.44,330.65"/>
    </edge>
    <edge id=":77_4" function="internal">
        <lane id=":77_4_0" index="0" disallow="pedestrian tram rail_urban rail rail_electric rail_fast ship" speed="8.09" length="14.28" width="4.00" shape="79.44,326.65 83.37,326.11 86.18,324.48 87.87,321.75 88.43,317.94"/>
    </edge>
    <edge id=":77_5" function="internal">
        <lane id=":77_5_0" index="0" disallow="pedestrian tram rail_urban rail rail_electric rail_fast ship" speed="13.89" length="23.32" width="4.00" shape="79.44,326.65 102.75,326.66"/>
    </edge>
    <edge id=":94_0" function="internal">
        <lane id=":94_0_0" index="0" disallow="pedestrian tram rail_urban rail rail_electric rail_fast ship" speed="8.28" length="15.02" width="4.00" shape="334.85,142.96 334.28,138.80 332.57,135.83 329.72,134.04 325.73,133.45"/>
    </edge>
    <edge id=":94_1" function="internal">
        <lane id=":94_1_0" index="0" disallow="pedestrian tram rail_urban rail rail_electric rail_fast ship" speed="13.89" length="23.50" width="4.00" shape="334.85,142.96 334.83,119.45"/>
    </edge>
    <edge id=":94_2" function="internal">
        <lane id=":94_2_0" index="0" disallow="pedestrian tram rail_urban rail rail_electric rail_fast ship" speed="13.89" length="23.50" width="4.00" shape="338.83,119.45 338.85,142.96"/>
    </edge>
    <edge id=":94_3" function="internal">
        <lane id=":94_3_0" index="0" disallow="pedestrian tram rail_urban rail rail_electric rail_fast ship" speed="9.87" length="8.59" width="4.00" shape="338.83,119.45 338.02,125.58 336.84,127.68"/>
    </edge>
    <edge id=":94_6" function="internal">
        <lane id=":94_6_0" index="0" disallow="pedestrian tram rail_urban rail rail_electric rail_fast ship" speed="9.87" length="13.28" width="4.00" shape="336.84,127.68 335.56,129.95 331.47,132.58 325.73,133.45"/>
    </edge>
    <edge id=":94_4" function="internal">
        <lane id=":94_4_0" index="0" disallow="pedestrian tram rail_urban rail rail_electric rail_fast ship" speed="8.38" length="15.41" width="4.00" shape="325.73,129.45 329.71,128.83 332.56,126.95 334.27,123.83 334.83,119.45"/>
    </edge>
    <edge id=":94_5" function="internal">
        <lane id=":94_5_0" index="0" disallow="pedestrian tram rail_urban rail rail_electric rail_fast ship" speed="9.78" length="21.47" width="4.00" shape="325.73,129.45 331.47,130.29 335.56,132.83 338.02,137.05 338.85,142.96"/>
    </edge>

    <edge id="-1.0.00" from="43" to="26" priority="1" type="driving" shape="325.69,328.62 323.74,328.62 321.79,328.62 319.85,328.62 317.90,328.63 315.95,328.63 314.00,328.63 312.06,328.63 310.11,328.63 308.16,328.63 306.21,328.63 304.27,328.63 302.32,328.63 300.37,328.63 298.43,328.64 296.48,328.64 294.53,328.64 292.58,328.64 290.64,328.64 290.42,328.64 288.43,328.64 286.44,328.64 284.45,328.64 282.46,328.64 280.47,328.64 278.48,328.64 276.49,328.64 274.49,328.64 272.50,328.64 270.51,328.64 268.52,328.64 266.53,328.64 264.54,328.64 262.55,328.64 260.55,328.64 258.56,328.64 256.57,328.64 254.58,328.64 252.59,328.64 250.60,328.64 248.61,328.64 246.62,328.64 244.62,328.64 242.63,328.65 240.64,328.65 238.65,328.65 236.66,328.65 234.67,328.65 232.68,328.65 230.69,328.65 228.69,328.65 226.70,328.65 224.71,328.65 222.72,328.65 220.73,328.65 218.74,328.65 216.75,328.65 214.76,328.65 212.76,328.65 210.77,328.65 208.78,328.65 206.79,328.65 204.80,328.65 202.81,328.65 200.82,328.65 198.83,328.65 196.83,328.65 194.92,328.65 193.01,328.65 191.10,328.65 189.18,328.65 187.27,328.65 185.36,328.65 183.45,328.65 181.53,328.65 179.62,328.65 177.71,328.65 175.79,328.65 173.88,328.65 171.97,328.65 170.06,328.65 168.14,328.65">
        <lane id="-1.0.00_0" index="0" disallow="pedestrian tram rail_urban rail rail_electric rail_fast ship" speed="13.89" length="157.55" width="4.00" shape="325.69,330.62 323.74,330.62 321.79,330.62 319.85,330.62 317.90,330.63 315.95,330.63 314.00,330.63 312.06,330.63 310.11,330.63 308.16,330.63 306.22,330.63 304.27,330.63 302.32,330.63 300.37,330.63 298.43,330.64 296.48,330.64 294.53,330.64 292.58,330.64 290.64,330.64 290.42,330.64 288.43,330.64 286.44,330.64 284.45,330.64 282.46,330.64 280.47,330.64 278.48,330.64 276.49,330.64 274.49,330.64 272.50,330.64 270.51,330.64 268.52,330.64 266.53,330.64 264.54,330.64 262.55,330.64 260.56,330.64 258.56,330.64 256.57,330.64 254.58,330.64 252.59,330.64 250.60,330.64 248.61,330.64 246.62,330.64 244.63,330.64 242.63,330.65 240.64,330.65 238.65,330.65 236.66,330.65 234.67,330.65 232.68,330.65 230.69,330.65 228.70,330.65 226.70,330.65 224.71,330.65 222.72,330.65 220.73,330.65 218.74,330.65 216.75,330.65 214.76,330.65 212.77,330.65 210.77,330.65 208.78,330.65 206.79,330.65 204.80,330.65 202.81,330.65 200.82,330.65 198.83,330.65 196.84,330.65 194.92,330.65 193.01,330.65 191.10,330.65 189.18,330.65 187.27,330.65 185.36,330.65 183.45,330.65 181.53,330.65 179.62,330.65 177.71,330.65 175.79,330.65 173.88,330.65 171.97,330.65 170.06,330.65 168.14,330.65" type="driving"/>
    </edge>
    <edge id="-10.0.00" from="167" to="111" priority="1" type="driving" shape="167.23,271.12 325.69,271.14">
        <lane id="-10.0.00_0" index="0" disallow="pedestrian tram rail_urban rail rail_electric rail_fast ship" speed="13.89" length="158.45" width="4.00" shape="167.23,269.12 325.69,269.14" type="driving"/>
    </edge>
    <edge id="-12.0.00" from="128" to="94" priority="1" type="driving" shape="101.48,131.47 325.73,131.45">
        <lane id="-12.0.00_0" index="0" disallow="pedestrian tram rail_urban rail rail_electric rail_fast ship" speed="13.89" length="224.24" width="4.00" shape="101.48,129.47 325.73,129.45" type="driving"/>
    </edge>
    <edge id="-16.0.00" from="43" to="111" priority="1" type="driving" shape="336.95,317.82 336.93,282.19">
        <lane id="-16.0.00_0" index="0" disallow="pedestrian tram rail_urban rail rail_electric rail_fast ship" speed="13.89" length="35.62" width="4.00" shape="334.95,317.82 334.93,282.20" type="driving"/>
    </edge>
    <edge id="-17.0.00" from="111" to="139" priority="1" type="driving" shape="336.92,259.58 336.89,208.03">
        <lane id="-17.0.00_0" index="0" disallow="pedestrian tram rail_urban rail rail_electric rail_fast ship" speed="13.89" length="51.55" width="4.00" shape="334.92,259.58 334.89,208.03" type="driving"/>
    </edge>