<?xml version="1.0" encoding="UTF-8"?>
<!-- generated on 2020-03-03 12:44:57.141872 by randomTrips.py v1_5_0+0340-c5c5ce5a4d
  options: -n Town01.net.xml -e 100 <doubleminus>vehicle-class passenger
-->
<routes xmlns:xsi="http://www.w3.org/2001/XMLSchema-instance" xsi:noNamespaceSchemaLocation="http://sumo.dlr.de/xsd/routes_file.xsd">
    <vType id="passenger" vClass="passenger"/>
    <trip id="0" depart="0.00" from="-21.0.00" to="21.0.00" type="passenger"/>
    <trip id="1" depart="1.00" from="24.0.00" to="17.0.00" type="passenger"/>
    <trip id="2" depart="2.00" from="-17.0.00" to="-16.0.00" type="passenger"/>
    <trip id="3" depart="3.00" from="-18.0.00" to="-19.0.00" type="passenger"/>
    <trip id="4" depart="4.00" from="-24.0.00" to="2.0.00" type="passenger"/>
    <trip id="5" depart="5.00" from="-16.0.00" to="-1.0.00" type="passenger"/>
    <trip id="6" depart="6.00" from="18.0.00" to="-22.0.00" type="passenger"/>
    <trip id="7" depart="7.00" from="22.0.00" to="-16.0.00" type="passenger"/>
    <trip id="8" depart="8.00" from="25.0.00" to="-9.0.00" type="passenger"/>
    <trip id="9" depart="9.00" from="-12.0.00" to="-25.0.00" type="passenger"/>
    <trip id="10" depart="10.00" from="-16.0.00" to="-21.0.00" type="passenger"/>
    <trip id="11" depart="11.00" from="12.0.00" to="-10.0.00" type="passenger"/>
    <trip id="12" depart="12.00" from="-24.0.00" to="-6.0.00" type="passenger"/>
    <trip id="13" depart="13.00" from="-24.0.00" to="-7.0.00" type="passenger"/>
    <trip id="14" depart="14.00" from="22.0.00" to="5.0.00" type="passenger"/>
    <trip id="15" depart="15.00" from="24.0.00" to="19.0.00" type="passenger"/>
    <trip id="16" depart="16.00" from="24.0.00" to="21.0.00" type="passenger"/>
    <trip id="17" depart="17.00" from="0.0.00" to="-7.0.00" type="passenger"/>
    <trip id="18" depart="18.00" from="25.0.00" to="-23.0.00" type="passenger"/>
    <trip id="19" depart="19.00" from="-25.0.00" to="-4.0.00" type="passenger"/>
    <trip id="20" depart="20.00" from="-6.0.00" to="19.0.00" type="passenger"/>
    <trip id="21" depart="21.00" from="21.0.00" to="12.0.00" type="passenger"/>
    <trip id="22" depart="22.00" from="-2.0.00" to="21.0.00" type="passenger"/>
    <trip id="23" depart="23.00" from="21.0.00" to="2.0.00" type="passenger"/>
    <trip id="24" depart="24.00" from="18.0.00" to="18.0.00" type="passenger"/>
    <trip id="25" depart="25.00" from="-6.0.00" to="10.0.00" type="passenger"/>
    <trip id="26" depart="26.00" from="-24.0.00" to="17.0.00" type="passenger"/>
    <trip id="27" depart="27.00" from="17.0.00" to="17.0.00" type="passenger"/>
    <trip id="28" depart="28.00" from="4.0.00" to="4.0.00" type="passenger"/>
    <trip id="29" depart="29.00" from="-12.0.00" to="24.0.00" type="passenger"/>
    <trip id="30" depart="30.00" from="24.0.00" to="10.0.00" type="passenger"/>
    <trip id="31" depart="31.00" from="24.0.00" to="12.0.00" type="passenger"/>
    <trip id="32" depart="32.00" from="-24.0.00" to="23.0.00" type="passenger"/>
    <trip id="33" depart="33.00" from="21.0.00" to="-23.0.00" type="passenger"/>
    <trip id="34" depart="34.00" from="16.0.00" to="10.0.00" type="passenger"/>
    <trip id="35" depart="35.00" from="-19.0.00" to="-21.0.00" type="passenger"/>
    <trip id="36" depart="36.00" from="-12.0.00" to="22.0.00" type="passenger"/>
    <trip id="37" depart="37.00" from="12.0.00" to="-23.0.00" type="passenger"/>
    <trip id="38" depart="38.00" from="-17.0.00" to="-16.0.00" type="passenger"/>
    <trip id="39" depart="39.00" from="-3.0.00" to="-24.0.00" type="passenger"/>
    <trip id="40" depart="40.00" from="18.0.00" to="-23.0.00" type="passenger"/>
    <trip id="41" depart="41.00" from="-12.0.00" to="-16.0.00" type="passenger"/>
    <trip id="42" depart="42.00" from="19.0.00" to="2.0.00" type="passenger"/>
    <trip id="43" depart="43.00" from="-3.0.00" to="-22.0.00" type="passenger"/>
    <trip id="44" depart="44.00" from="22.0.00" to="16.0.00" type="passenger"/>
    <trip id="45" depart="45.00" from="-10.0.00" to="0.0.00" type="passenger"/>
    <trip id="46" depart="46.00" from="21.0.00" to="21.0.00" type="passenger"/>
    <trip id="47" depart="47.00" from="12.0.00" to="-21.0.00" type="passenger"/>
    <trip id="48" depart="48.00" from="-1.0.00" to="-7.0.00" type="passenger"/>
    <trip id="49" depart="49.00" from="-2.0.00" to="16.0.00" type="passenger"/>
    <trip id="50" depart="50.00" from="0.0.00" to="-21.0.00" type="passenger"/>
    <trip id="51" depart="51.00" from="12.0.00" to="-3.0.00" type="passenger"/>
    <trip id="52" depart="52.00" from="5.0.00" to="-21.0.00" type="passenger"/>
    <trip id="53" depart="53.00" from="-1.0.00" to="9.0.00" type="passenger"/>
    <trip id="54" depart="54.00" from="1.0.00" to="2.0.00" type="passenger"/>
    <trip id="55" depart="55.00" from="16.0.00" to="-17.0.00" type="passenger"/>
    <trip id="56" depart="56.00" from="-24.0.00" to="1.0.00" type="passenger"/>
    <trip id="57" depart="57.00" from="-25.0.00" to="17.0.00" type="passenger"/>
    <trip id="58" depart="58.00" from="-6.0.00" to="-1.0.00" type="passenger"/>
    <trip id="59" depart="59.00" from="10.0.00" to="-9.0.00" type="passenger"/>
    <trip id="60" depart="60.00" from="-10.0.00" to="6.0.00" type="passenger"/>
    <trip id="61" depart="61.00" from="-19.0.00" to="6.0.00" type="passenger"/>
    <trip id="62" depart="62.00" from="-10.0.00" to="1.0.00" type="passenger"/>
    <trip id="63" depart="63.00" from="18.0.00" to="-21.0.00" type="passenger"/>
    <trip id="64" depart="64.00" from="0.0.00" to="-17.0.00" type="passenger"/>
    <trip id="65" depart="65.00" from="-12.0.00" to="-7.0.00" type="passenger"/>
    <trip id="66" depart="66.00" from="-3.0.00" to="16.0.00" type="passenger"/>
    <trip id="67" depart="67.00" from="9.0.00" to="23.0.00" type="passenger"/>
    <trip id="68" depart="68.00" from="-21.0.00" to="-18.0.00" type="passenger"/>
    <trip id="69" depart="69.00" from="10.0.00" to="-19.0.00" type="passenger"/>
    <trip id="70" depart="70.00" from="12.0.00" to="-7.0.00" type="passenger"/>
    <trip id="71" depart="71.00" from="-23.0.00" to="25.0.00" type="passenger"/>
    <trip id="72" depart="72.00" from="-1.0.00" to="-22.0.00" type="passenger"/>
    <trip id="73" depart="73.00" from="-3.0.00" to="-6.0.00" type="passenger"/>
    <trip id="74" depart="74.00" from="5.0.00" to="19.0.00" type="passenger"/>
    <trip id="75" depart="75.00" from="-4.0.00" to="18.0.00" type="passenger"/>
    <trip id="76" depart="76.00" from="2.0.00" to="-10.0.00" type="passenger"/>
    <trip id="77" depart="77.00" from="4.0.00" to="6.0.00" type="passenger"/>
    <trip id="78" depart="78.00" from="19.0.00" to="-21.0.00" type="passenger"/>
    <trip id="79" depart="79.00" from="25.0.00" to="24.0.00" type="passenger"/>
    <trip id="80" depart="80.00" from="17.0.00" to="-12.0.00" type="passenger"/>
    <trip id="81" depart="81.00" from="-18.0.00" to="-3.0.00" type="passenger"/>
    <trip id="82" depart="82.00" from="-22.0.00" to="-6.0.00" type="passenger"/>
    <trip id="83" depart="83.00" from="17.0.00" to="-21.0.00" type="passenger"/>
    <trip id="84" depart="84.00" from="-6.0.00" to="-3.0.00" type="passenger"/>
    <trip id="85" depart="85.00" from="10.0.00" to="21.0.00" type="passenger"/>
    <trip id="86" depart="86.00" from="-10.0.00" to="18.0.00" type="passenger"/>
    <trip id="87" depart="87.00" from="-4.0.00" to="-22.0.00" type="passenger"/>
    <trip id="88" depart="88.00" from="-18.0.00" to="25.0.00" type="passenger"/>
    <trip id="89" depart="89.00" from="23.0.00" to="-12.0.00" type="passenger"/>
    <trip id="90" depart="90.00" from="4.0.00" to="5.0.00" type="passenger"/>
    <trip id="91" depart="91.00" from="10.0.00" to="-25.0.00" type="passenger"/>
    <trip id="92" depart="92.00" from="-19.0.00" to="24.0.00" type="passenger"/>
    <trip id="93" depart="93.00" from="-22.0.00" to="12.0.00" type="passenger"/>
    <trip id="94" depart="94.00" from="24.0.00" to="-17.0.00" type="passenger"/>
    <trip id="95" depart="95.00" from="25.0.00" to="-19.0.00" type="passenger"/>
    <trip id="96" depart="96.00" from="-21.0.00" to="-6.0.00" type="passenger"/>
    <trip id="97" depart="97.00" from="2.0.00" to="23.0.00" type="passenger"/>
    <trip id="98" depart="98.00" from="-16.0.00" to="10.0.00" type="passenger"/>
    <trip id="99" depart="99.00" from="10.0.00" to="-22.0.00" type="passenger"/>
</routes>
