<?xml version="1.0" encoding="iso-8859-1"?>

<!-- generated on Fri Jul 22 23:05:36 2011 by SUMO netgen Version dev-SVN-r11063
<?xml version="1.0" encoding="iso-8859-1"?>

<configuration xmlns:xsi="http://www.w3.org/2001/XMLSchema-instance" xsi:noNamespaceSchemaLocation="https://sumo.sf.net/xsd/netgenConfiguration.xsd">

    <grid_network>
        <grid value="true"/>
        <grid.number value="2"/>
        <grid.attach-length value="200"/>
    </grid_network>

    <output>
        <output-file value="square/square.tmp.net.xml"/>
    </output>

    <building_defaults>
        <default-junction-type value="traffic_light"/>
    </building_defaults>

</configuration>
-->

<net version="0.13" xmlns:xsi="http://www.w3.org/2001/XMLSchema-instance" xsi:noNamespaceSchemaLocation="https://sumo.sf.net/xsd/net_file.xsd">

    <location netOffset="0.00,0.00" convBoundary="0.00,0.00,500.00,500.00" origBoundary="0.00,0.00,500.00,500.00" projParameter="!"/>

    <edge id=":0/0_0" function="internal">
        <lane id=":0/0_0_0" index="0" speed="13.90" length="5.00" shape="198.35,204.75 198.16,203.39 197.57,202.42 196.61,201.84 195.25,201.65"/>
    </edge>
    <edge id=":0/0_1" function="internal">
        <lane id=":0/0_1_0" index="0" speed="13.90" length="9.50" shape="198.35,204.75 198.35,195.25"/>
    </edge>
    <edge id=":0/0_2" function="internal">
        <lane id=":0/0_2_0" index="0" speed="13.90" length="3.18" shape="198.35,204.75 198.75,201.95 198.93,201.65"/>
    </edge>
    <edge id=":0/0_16" function="internal">
        <lane id=":0/0_16_0" index="0" speed="13.90" length="7.14" shape="198.93,201.65 199.95,199.95 201.95,198.75 204.75,198.35"/>
    </edge>
    <edge id=":0/0_3" function="internal">
        <lane id=":0/0_3_0" index="0" speed="13.90" length="2.41" shape="198.35,204.75 199.17,203.51 200.00,203.10"/>
    </edge>
    <edge id=":0/0_17" function="internal">
        <lane id=":0/0_17_0" index="0" speed="13.90" length="2.41" shape="200.00,203.10 200.82,203.51 201.65,204.75"/>
    </edge>
    <edge id=":0/0_4" function="internal">
        <lane id=":0/0_4_0" index="0" speed="13.90" length="5.00" shape="204.75,201.65 203.39,201.84 202.43,202.43 201.84,203.39 201.65,204.75"/>
    </edge>
    <edge id=":0/0_5" function="internal">
        <lane id=":0/0_5_0" index="0" speed="13.90" length="9.50" shape="204.75,201.65 195.25,201.65"/>
    </edge>
    <edge id=":0/0_6" function="internal">
        <lane id=":0/0_6_0" index="0" speed="13.90" length="3.18" shape="204.75,201.65 201.95,201.25 201.65,201.07"/>
    </edge>
    <edge id=":0/0_18" function="internal">
        <lane id=":0/0_18_0" index="0" speed="13.90" length="7.14" shape="201.65,201.07 199.95,200.05 198.75,198.05 198.35,195.25"/>
    </edge>
    <edge id=":0/0_7" function="internal">
        <lane id=":0/0_7_0" index="0" speed="13.90" length="2.41" shape="204.75,201.65 203.51,200.83 203.10,200.00"/>
    </edge>
    <edge id=":0/0_19" function="internal">
        <lane id=":0/0_19_0" index="0" speed="13.90" length="2.41" shape="203.10,200.00 203.51,199.18 204.75,198.35"/>
    </edge>
    <edge id=":0/0_8" function="internal">
        <lane id=":0/0_8_0" index="0" speed="13.90" length="5.00" shape="201.65,195.25 201.84,196.61 202.43,197.58 203.39,198.16 204.75,198.35"/>
    </edge>
    <edge id=":0/0_9" function="internal">
        <lane id=":0/0_9_0" index="0" speed="13.90" length="9.50" shape="201.65,195.25 201.65,204.75"/>
    </edge>
    <edge id=":0/0_10" function="internal">
        <lane id=":0/0_10_0" index="0" speed="13.90" length="3.18" shape="201.65,195.25 201.25,198.05 201.07,198.35"/>
    </edge>
    <edge id=":0/0_20" function="internal">
        <lane id=":0/0_20_0" index="0" speed="13.90" length="7.14" shape="201.07,198.35 200.05,200.05 198.05,201.25 195.25,201.65"/>
    </edge>
    <edge id=":0/0_11" function="internal">
        <lane id=":0/0_11_0" index="0" speed="13.90" length="2.41" shape="201.65,195.25 200.83,196.49 200.00,196.90"/>
    </edge>
    <edge id=":0/0_21" function="internal">
        <lane id=":0/0_21_0" index="0" speed="13.90" length="2.41" shape="200.00,196.90 199.18,196.49 198.35,195.25"/>
    </edge>
    <edge id=":0/0_12" function="internal">
        <lane id=":0/0_12_0" index="0" speed="13.90" length="5.00" shape="195.25,198.35 196.61,198.16 197.57,197.57 198.16,196.61 198.35,195.25"/>
    </edge>
    <edge id=":0/0_13" function="internal">
        <lane id=":0/0_13_0" index="0" speed="13.90" length="9.50" shape="195.25,198.35 204.75,198.35"/>
    </edge>
    <edge id=":0/0_14" function="internal">
        <lane id=":0/0_14_0" index="0" speed="13.90" length="3.18" shape="195.25,198.35 198.05,198.75 198.35,198.93"/>
    </edge>
    <edge id=":0/0_22" function="internal">
        <lane id=":0/0_22_0" index="0" speed="13.90" length="7.14" shape="198.35,198.93 200.05,199.95 201.25,201.95 201.65,204.75"/>
    </edge>
    <edge id=":0/0_15" function="internal">
        <lane id=":0/0_15_0" index="0" speed="13.90" length="2.41" shape="195.25,198.35 196.49,199.17 196.90,200.00"/>
    </edge>
    <edge id=":0/0_23" function="internal">
        <lane id=":0/0_23_0" index="0" speed="13.90" length="2.41" shape="196.90,200.00 196.49,200.82 195.25,201.65"/>
    </edge>
    <edge id=":0/1_0" function="internal">
        <lane id=":0/1_0_0" index="0" speed="13.90" length="5.00" shape="198.35,304.75 198.16,303.39 197.57,302.42 196.61,301.84 195.25,301.65"/>
    </edge>
    <edge id=":0/1_1" function="internal">
        <lane id=":0/1_1_0" index="0" speed="13.90" length="9.50" shape="198.35,304.75 198.35,295.25"/>
    </edge>
    <edge id=":0/1_2" function="internal">
        <lane id=":0/1_2_0" index="0" speed="13.90" length="3.18" shape="198.35,304.75 198.75,301.95 198.93,301.65"/>
    </edge>
    <edge id=":0/1_16" function="internal">
        <lane id=":0/1_16_0" index="0" speed="13.90" length="7.14" shape="198.93,301.65 199.95,299.95 201.95,298.75 204.75,298.35"/>
    </edge>
    <edge id=":0/1_3" function="internal">
        <lane id=":0/1_3_0" index="0" speed="13.90" length="2.41" shape="198.35,304.75 199.17,303.51 200.00,303.10"/>
    </edge>
    <edge id=":0/1_17" function="internal">
        <lane id=":0/1_17_0" index="0" speed="13.90" length="2.41" shape="200.00,303.10 200.82,303.51 201.65,304.75"/>
    </edge>
    <edge id=":0/1_4" function="internal">
        <lane id=":0/1_4_0" index="0" speed="13.90" length="5.00" shape="204.75,301.65 203.39,301.84 202.43,302.42 201.84,303.39 201.65,304.75"/>
    </edge>
    <edge id=":0/1_5" function="internal">
        <lane id=":0/1_5_0" index="0" speed="13.90" length="9.50" shape="204.75,301.65 195.25,301.65"/>
    </edge>
    <edge id=":0/1_6" function="internal">
        <lane id=":0/1_6_0" index="0" speed="13.90" length="3.18" shape="204.75,301.65 201.95,301.25 201.65,301.07"/>
    </edge>
    <edge id=":0/1_18" function="internal">
        <lane id=":0/1_18_0" index="0" speed="13.90" length="7.14" shape="201.65,301.07 199.95,300.05 198.75,298.05 198.35,295.25"/>
    </edge>
    <edge id=":0/1_7" function="internal">
        <lane id=":0/1_7_0" index="0" speed="13.90" length="2.41" shape="204.75,301.65 203.51,300.83 203.10,300.00"/>
    </edge>
    <edge id=":0/1_19" function="internal">
        <lane id=":0/1_19_0" index="0" speed="13.90" length="2.41" shape="203.10,300.00 203.51,299.18 204.75,298.35"/>
    </edge>
    <edge id=":0/1_8" function="internal">
        <lane id=":0/1_8_0" index="0" speed="13.90" length="5.00" shape="201.65,295.25 201.84,296.61 202.43,297.58 203.39,298.16 204.75,298.35"/>
    </edge>
    <edge id=":0/1_9" function="internal">
        <lane id=":0/1_9_0" index="0" speed="13.90" length="9.50" shape="201.65,295.25 201.65,304.75"/>
    </edge>
    <edge id=":0/1_10" function="internal">
        <lane id=":0/1_10_0" index="0" speed="13.90" length="3.18" shape="201.65,295.25 201.25,298.05 201.07,298.35"/>
    </edge>
    <edge id=":0/1_20" function="internal">
        <lane id=":0/1_20_0" index="0" speed="13.90" length="7.14" shape="201.07,298.35 200.05,300.05 198.05,301.25 195.25,301.65"/>
    </edge>
    <edge id=":0/1_11" function="internal">
        <lane id=":0/1_11_0" index="0" speed="13.90" length="2.41" shape="201.65,295.25 200.83,296.49 200.00,296.90"/>
    </edge>
    <edge id=":0/1_21" function="internal">
        <lane id=":0/1_21_0" index="0" speed="13.90" length="2.41" shape="200.00,296.90 199.18,296.49 198.35,295.25"/>
    </edge>
    <edge id=":0/1_12" function="internal">
        <lane id=":0/1_12_0" index="0" speed="13.90" length="5.00" shape="195.25,298.35 196.61,298.16 197.57,297.58 198.16,296.61 198.35,295.25"/>
    </edge>
    <edge id=":0/1_13" function="internal">
        <lane id=":0/1_13_0" index="0" speed="13.90" length="9.50" shape="195.25,298.35 204.75,298.35"/>
    </edge>
    <edge id=":0/1_14" function="internal">
        <lane id=":0/1_14_0" index="0" speed="13.90" length="3.18" shape="195.25,298.35 198.05,298.75 198.35,298.93"/>
    </edge>
    <edge id=":0/1_22" function="internal">
        <lane id=":0/1_22_0" index="0" speed="13.90" length="7.14" shape="198.35,298.93 200.05,299.95 201.25,301.95 201.65,304.75"/>
    </edge>
    <edge id=":0/1_15" function="internal">
        <lane id=":0/1_15_0" index="0" speed="13.90" length="2.41" shape="195.25,298.35 196.49,299.17 196.90,300.00"/>
    </edge>
    <edge id=":0/1_23" function="internal">
        <lane id=":0/1_23_0" index="0" speed="13.90" length="2.41" shape="196.90,300.00 196.49,300.82 195.25,301.65"/>
    </edge>
    <edge id=":1/0_0" function="internal">
        <lane id=":1/0_0_0" index="0" speed="13.90" length="5.00" shape="298.35,204.75 298.16,203.39 297.57,202.42 296.61,201.84 295.25,201.65"/>
    </edge>
    <edge id=":1/0_1" function="internal">
        <lane id=":1/0_1_0" index="0" speed="13.90" length="9.50" shape="298.35,204.75 298.35,195.25"/>
    </edge>
    <edge id=":1/0_2" function="internal">
        <lane id=":1/0_2_0" index="0" speed="13.90" length="3.18" shape="298.35,204.75 298.75,201.95 298.93,201.65"/>
    </edge>
    <edge id=":1/0_16" function="internal">
        <lane id=":1/0_16_0" index="0" speed="13.90" length="7.14" shape="298.93,201.65 299.95,199.95 301.95,198.75 304.75,198.35"/>
    </edge>
    <edge id=":1/0_3" function="internal">
        <lane id=":1/0_3_0" index="0" speed="13.90" length="2.41" shape="298.35,204.75 299.17,203.51 300.00,203.10"/>
    </edge>
    <edge id=":1/0_17" function="internal">
        <lane id=":1/0_17_0" index="0" speed="13.90" length="2.41" shape="300.00,203.10 300.82,203.51 301.65,204.75"/>
    </edge>
    <edge id=":1/0_4" function="internal">
        <lane id=":1/0_4_0" index="0" speed="13.90" length="5.00" shape="304.75,201.65 303.39,201.84 302.43,202.43 301.84,203.39 301.65,204.75"/>
    </edge>
    <edge id=":1/0_5" function="internal">
        <lane id=":1/0_5_0" index="0" speed="13.90" length="9.50" shape="304.75,201.65 295.25,201.65"/>
    </edge>
    <edge id=":1/0_6" function="internal">
        <lane id=":1/0_6_0" index="0" speed="13.90" length="3.18" shape="304.75,201.65 301.95,201.25 301.65,201.07"/>
    </edge>
    <edge id=":1/0_18" function="internal">
        <lane id=":1/0_18_0" index="0" speed="13.90" length="7.14" shape="301.65,201.07 299.95,200.05 298.75,198.05 298.35,195.25"/>
    </edge>
    <edge id=":1/0_7" function="internal">
        <lane id=":1/0_7_0" index="0" speed="13.90" length="2.41" shape="304.75,201.65 303.51,200.83 303.10,200.00"/>
    </edge>
    <edge id=":1/0_19" function="internal">
        <lane id=":1/0_19_0" index="0" speed="13.90" length="2.41" shape="303.10,200.00 303.51,199.18 304.75,198.35"/>
    </edge>
    <edge id=":1/0_8" function="internal">
        <lane id=":1/0_8_0" index="0" speed="13.90" length="5.00" shape="301.65,195.25 301.84,196.61 302.43,197.58 303.39,198.16 304.75,198.35"/>
    </edge>
    <edge id=":1/0_9" function="internal">
        <lane id=":1/0_9_0" index="0" speed="13.90" length="9.50" shape="301.65,195.25 301.65,204.75"/>
    </edge>
    <edge id=":1/0_10" function="internal">
        <lane id=":1/0_10_0" index="0" speed="13.90" length="3.18" shape="301.65,195.25 301.25,198.05 301.07,198.35"/>
    </edge>
    <edge id=":1/0_20" function="internal">
        <lane id=":1/0_20_0" index="0" speed="13.90" length="7.14" shape="301.07,198.35 300.05,200.05 298.05,201.25 295.25,201.65"/>
    </edge>
    <edge id=":1/0_11" function="internal">
        <lane id=":1/0_11_0" index="0" speed="13.90" length="2.41" shape="301.65,195.25 300.83,196.49 300.00,196.90"/>
    </edge>
    <edge id=":1/0_21" function="internal">
        <lane id=":1/0_21_0" index="0" speed="13.90" length="2.41" shape="300.00,196.90 299.18,196.49 298.35,195.25"/>
    </edge>
    <edge id=":1/0_12" function="internal">
        <lane id=":1/0_12_0" index="0" speed="13.90" length="5.00" shape="295.25,198.35 296.61,198.16 297.57,197.57 298.16,196.61 298.35,195.25"/>
    </edge>
    <edge id=":1/0_13" function="internal">
        <lane id=":1/0_13_0" index="0" speed="13.90" length="9.50" shape="295.25,198.35 304.75,198.35"/>
    </edge>
    <edge id=":1/0_14" function="internal">
        <lane id=":1/0_14_0" index="0" speed="13.90" length="3.18" shape="295.25,198.35 298.05,198.75 298.35,198.93"/>
    </edge>
    <edge id=":1/0_22" function="internal">
        <lane id=":1/0_22_0" index="0" speed="13.90" length="7.14" shape="298.35,198.93 300.05,199.95 301.25,201.95 301.65,204.75"/>
    </edge>
    <edge id=":1/0_15" function="internal">
        <lane id=":1/0_15_0" index="0" speed="13.90" length="2.41" shape="295.25,198.35 296.49,199.17 296.90,200.00"/>
    </edge>
    <edge id=":1/0_23" function="internal">
        <lane id=":1/0_23_0" index="0" speed="13.90" length="2.41" shape="296.90,200.00 296.49,200.82 295.25,201.65"/>
    </edge>
    <edge id=":1/1_0" function="internal">
        <lane id=":1/1_0_0" index="0" speed="13.90" length="5.00" shape="298.35,304.75 298.16,303.39 297.57,302.42 296.61,301.84 295.25,301.65"/>
    </edge>
    <edge id=":1/1_1" function="internal">
        <lane id=":1/1_1_0" index="0" speed="13.90" length="9.50" shape="298.35,304.75 298.35,295.25"/>
    </edge>
    <edge id=":1/1_2" function="internal">
        <lane id=":1/1_2_0" index="0" speed="13.90" length="3.18" shape="298.35,304.75 298.75,301.95 298.93,301.65"/>
    </edge>
    <edge id=":1/1_16" function="internal">
        <lane id=":1/1_16_0" index="0" speed="13.90" length="7.14" shape="298.93,301.65 299.95,299.95 301.95,298.75 304.75,298.35"/>
    </edge>
    <edge id=":1/1_3" function="internal">
        <lane id=":1/1_3_0" index="0" speed="13.90" length="2.41" shape="298.35,304.75 299.17,303.51 300.00,303.10"/>
    </edge>
    <edge id=":1/1_17" function="internal">
        <lane id=":1/1_17_0" index="0" speed="13.90" length="2.41" shape="300.00,303.10 300.82,303.51 301.65,304.75"/>
    </edge>
    <edge id=":1/1_4" function="internal">
        <lane id=":1/1_4_0" index="0" speed="13.90" length="5.00" shape="304.75,301.65 303.39,301.84 302.43,302.42 301.84,303.39 301.65,304.75"/>
    </edge>
    <edge id=":1/1_5" function="internal">
        <lane id=":1/1_5_0" index="0" speed="13.90" length="9.50" shape="304.75,301.65 295.25,301.65"/>
    </edge>
    <edge id=":1/1_6" function="internal">
        <lane id=":1/1_6_0" index="0" speed="13.90" length="3.18" shape="304.75,301.65 301.95,301.25 301.65,301.07"/>
    </edge>
    <edge id=":1/1_18" function="internal">
        <lane id=":1/1_18_0" index="0" speed="13.90" length="7.14" shape="301.65,301.07 299.95,300.05 298.75,298.05 298.35,295.25"/>
    </edge>
    <edge id=":1/1_7" function="internal">
        <lane id=":1/1_7_0" index="0" speed="13.90" length="2.41" shape="304.75,301.65 303.51,300.83 303.10,300.00"/>
    </edge>
    <edge id=":1/1_19" function="internal">
        <lane id=":1/1_19_0" index="0" speed="13.90" length="2.41" shape="303.10,300.00 303.51,299.18 304.75,298.35"/>
    </edge>
    <edge id=":1/1_8" function="internal">
        <lane id=":1/1_8_0" index="0" speed="13.90" length="5.00" shape="301.65,295.25 301.84,296.61 302.43,297.58 303.39,298.16 304.75,298.35"/>
    </edge>
    <edge id=":1/1_9" function="internal">
        <lane id=":1/1_9_0" index="0" speed="13.90" length="9.50" shape="301.65,295.25 301.65,304.75"/>
    </edge>
    <edge id=":1/1_10" function="internal">
        <lane id=":1/1_10_0" index="0" speed="13.90" length="3.18" shape="301.65,295.25 301.25,298.05 301.07,298.35"/>
    </edge>
    <edge id=":1/1_20" function="internal">
        <lane id=":1/1_20_0" index="0" speed="13.90" length="7.14" shape="301.07,298.35 300.05,300.05 298.05,301.25 295.25,301.65"/>
    </edge>
    <edge id=":1/1_11" function="internal">
        <lane id=":1/1_11_0" index="0" speed="13.90" length="2.41" shape="301.65,295.25 300.83,296.49 300.00,296.90"/>
    </edge>
    <edge id=":1/1_21" function="internal">
        <lane id=":1/1_21_0" index="0" speed="13.90" length="2.41" shape="300.00,296.90 299.18,296.49 298.35,295.25"/>
    </edge>
    <edge id=":1/1_12" function="internal">
        <lane id=":1/1_12_0" index="0" speed="13.90" length="5.00" shape="295.25,298.35 296.61,298.16 297.57,297.58 298.16,296.61 298.35,295.25"/>
    </edge>
    <edge id=":1/1_13" function="internal">
        <lane id=":1/1_13_0" index="0" speed="13.90" length="9.50" shape="295.25,298.35 304.75,298.35"/>
    </edge>
    <edge id=":1/1_14" function="internal">
        <lane id=":1/1_14_0" index="0" speed="13.90" length="3.18" shape="295.25,298.35 298.05,298.75 298.35,298.93"/>
    </edge>
    <edge id=":1/1_22" function="internal">
        <lane id=":1/1_22_0" index="0" speed="13.90" length="7.14" shape="298.35,298.93 300.05,299.95 301.25,301.95 301.65,304.75"/>
    </edge>
    <edge id=":1/1_15" function="internal">
        <lane id=":1/1_15_0" index="0" speed="13.90" length="2.41" shape="295.25,298.35 296.49,299.17 296.90,300.00"/>
    </edge>
    <edge id=":1/1_23" function="internal">
        <lane id=":1/1_23_0" index="0" speed="13.90" length="2.41" shape="296.90,300.00 296.49,300.82 295.25,301.65"/>
    </edge>
    <edge id=":bottom0_0" function="internal">
        <lane id=":bottom0_0_0" index="0" speed="13.90" length="4.82" shape="198.35,0.00 199.17,-1.24 200.00,-1.65 200.82,-1.24 201.65,0.00"/>
    </edge>
    <edge id=":bottom1_0" function="internal">
        <lane id=":bottom1_0_0" index="0" speed="13.90" length="4.82" shape="298.35,0.00 299.17,-1.24 300.00,-1.65 300.82,-1.24 301.65,0.00"/>
    </edge>
    <edge id=":left0_0" function="internal">
        <lane id=":left0_0_0" index="0" speed="13.90" length="4.82" shape="0.00,201.65 -1.24,200.83 -1.65,200.00 -1.24,199.18 0.00,198.35"/>
    </edge>
    <edge id=":left1_0" function="internal">
        <lane id=":left1_0_0" index="0" speed="13.90" length="4.82" shape="0.00,301.65 -1.24,300.83 -1.65,300.00 -1.24,299.18 0.00,298.35"/>
    </edge>
    <edge id=":right0_0" function="internal">
        <lane id=":right0_0_0" index="0" speed="13.90" length="4.82" shape="500.00,198.35 501.24,199.17 501.65,200.00 501.24,200.82 500.00,201.65"/>
    </edge>
    <edge id=":right1_0" function="internal">
        <lane id=":right1_0_0" index="0" speed="13.90" length="4.82" shape="500.00,298.35 501.24,299.17 501.65,300.00 501.24,300.82 500.00,301.65"/>
    </edge>
    <edge id=":top0_0" function="internal">
        <lane id=":top0_0_0" index="0" speed="13.90" length="4.82" shape="201.65,500.00 200.83,501.24 200.00,501.65 199.18,501.24 198.35,500.00"/>
    </edge>
    <edge id=":top1_0" function="internal">
        <lane id=":top1_0_0" index="0" speed="13.90" length="4.82" shape="301.65,500.00 300.83,501.24 300.00,501.65 299.18,501.24 298.35,500.00"/>
    </edge>

    <edge id="0/0to0/1" from="0/0" to="0/1" priority="-1">
        <lane id="0/0to0/1_0" index="0" speed="13.90" length="90.50" shape="201.65,204.75 201.65,295.25"/>
    </edge>
    <edge id="0/0to1/0" from="0/0" to="1/0" priority="-1">
        <lane id="0/0to1/0_0" index="0" speed="13.90" length="90.50" shape="204.75,198.35 295.25,198.35"/>
    </edge>
    <edge id="0/0tobottom0" from="0/0" to="bottom0" priority="-1">
        <lane id="0/0tobottom0_0" index="0" speed="13.90" length="195.25" shape="198.35,195.25 198.35,0.00"/>
    </edge>
    <edge id="0/0toleft0" from="0/0" to="left0" priority="-1">
        <lane id="0/0toleft0_0" index="0" speed="13.90" length="195.25" shape="195.25,201.65 0.00,201.65"/>
    </edge>
    <edge id="0/1to0/0" from="0/1" to="0/0" priority="-1">
        <lane id="0/1to0/0_0" index="0" speed="13.90" length="90.50" shape="198.35,295.25 198.35,204.75"/>
    </edge>
    <edge id="0/1to1/1" from="0/1" to="1/1" priority="-1">
        <lane id="0/1to1/1_0" index="0" speed="13.90" length="90.50" shape="204.75,298.35 295.25,298.35"/>
    </edge>
    <edge id="0/1toleft1" from="0/1" to="left1" priority="-1">
        <lane id="0/1toleft1_0" index="0" speed="13.90" length="195.25" shape="195.25,301.65 0.00,301.65"/>
    </edge>
    <edge id="0/1totop0" from="0/1" to="top0" priority="-1">
        <lane id="0/1totop0_0" index="0" speed="13.90" length="195.25" shape="201.65,304.75 201.65,500.00"/>
    </edge>
    <edge id="1/0to0/0" from="1/0" to="0/0" priority="-1">
        <lane id="1/0to0/0_0" index="0" speed="13.90" length="90.50" shape="295.25,201.65 204.75,201.65"/>
    </edge>
    <edge id="1/0to1/1" from="1/0" to="1/1" priority="-1">
        <lane id="1/0to1/1_0" index="0" speed="13.90" length="90.50" shape="301.65,204.75 301.65,295.25"/>
    </edge>
    <edge id="1/0tobottom1" from="1/0" to="bottom1" priority="-1">
        <lane id="1/0tobottom1_0" index="0" speed="13.90" length="195.25" shape="298.35,195.25 298.35,0.00"/>
    </edge>
    <edge id="1/0toright0" from="1/0" to="right0" priority="-1">
        <lane id="1/0toright0_0" index="0" speed="13.90" length="195.25" shape="304.75,198.35 500.00,198.35"/>
    </edge>
    <edge id="1/1to0/1" from="1/1" to="0/1" priority="-1">
        <lane id="1/1to0/1_0" index="0" speed="13.90" length="90.50" shape="295.25,301.65 204.75,301.65"/>
    </edge>
    <edge id="1/1to1/0" from="1/1" to="1/0" priority="-1">
        <lane id="1/1to1/0_0" index="0" speed="13.90" length="90.50" shape="298.35,295.25 298.35,204.75"/>
    </edge>
    <edge id="1/1toright1" from="1/1" to="right1" priority="-1">
        <lane id="1/1toright1_0" index="0" speed="13.90" length="195.25" shape="304.75,298.35 500.00,298.35"/>
    </edge>
    <edge id="1/1totop1" from="1/1" to="top1" priority="-1">
        <lane id="1/1totop1_0" index="0" speed="13.90" length="195.25" shape="301.65,304.75 301.65,500.00"/>
    </edge>
    <edge id="bottom0to0/0" from="bottom0" to="0/0" priority="-1">
        <lane id="bottom0to0/0_0" index="0" speed="13.90" length="195.25" shape="201.65,0.00 201.65,195.25"/>
    </edge>
    <edge id="bottom1to1/0" from="bottom1" to="1/0" priority="-1">
        <lane id="bottom1to1/0_0" index="0" speed="13.90" length="195.25" shape="301.65,0.00 301.65,195.25"/>
    </edge>
    <edge id="left0to0/0" from="left0" to="0/0" priority="-1">
        <lane id="left0to0/0_0" index="0" speed="13.90" length="195.25" shape="0.00,198.35 195.25,198.35"/>
    </edge>
    <edge id="left1to0/1" from="left1" to="0/1" priority="-1">
        <lane id="left1to0/1_0" index="0" speed="13.90" length="195.25" shape="0.00,298.35 195.25,298.35"/>
    </edge>
    <edge id="right0to1/0" from="right0" to="1/0" priority="-1">
        <lane id="right0to1/0_0" index="0" speed="13.90" length="195.25" shape="500.00,201.65 304.75,201.65"/>
    </edge>
    <edge id="right1to1/1" from="right1" to="1/1" priority="-1">
        <lane id="right1to1/1_0" index="0" speed="13.90" length="195.25" shape="500.00,301.65 304.75,301.65"/>
    </edge>
    <edge id="top0to0/1" from="top0" to="0/1" priority="-1">
        <lane id="top0to0/1_0" index="0" speed="13.90" length="195.25" shape="198.35,500.00 198.35,304.75"/>
    </edge>
    <edge id="top1to1/1" from="top1" to="1/1" priority="-1">
        <lane id="top1to1/1_0" index="0" speed="13.90" length="195.25" shape="298.35,500.00 298.35,304.75"/>
    </edge>

    <tlLogic id="0/0" type="static" programID="0" offset="0">
      <phase duration="2"     state="rrrruuuurrrruuuu"/>
      <phase duration="10000" state="rrrrGGggrrrrGGgg"/>
   </tlLogic>

   <tlLogic id="0/0" type="static" programID="1" offset="0">
      <phase duration="2"     state="uuuurrrruuuurrrr"/>
      <phase duration="10000" state="GGggrrrrGGggrrrr"/>
    </tlLogic>
    <tlLogic id="0/1" type="static" programID="0" offset="0">
      <phase duration="2"     state="rrrruuuurrrruuuu"/>
      <phase duration="10000" state="rrrrGGggrrrrGGgg"/>
   </tlLogic>

   <tlLogic id="0/1" type="static" programID="1" offset="0">
      <phase duration="2"     state="uuuurrrruuuurrrr"/>
      <phase duration="10000" state="GGggrrrrGGggrrrr"/>
    </tlLogic>
    <tlLogic id="1/0" type="static" programID="0" offset="0">
      <phase duration="2"     state="rrrruuuurrrruuuu"/>
      <phase duration="10000" state="rrrrGGggrrrrGGgg"/>
   </tlLogic>

   <tlLogic id="1/0" type="static" programID="1" offset="0">
      <phase duration="2"     state="uuuurrrruuuurrrr"/>
      <phase duration="10000" state="GGggrrrrGGggrrrr"/>
    </tlLogic>
    <tlLogic id="1/1" type="static" programID="0" offset="0">
      <phase duration="2"     state="rrrruuuurrrruuuu"/>
      <phase duration="10000" state="rrrrGGggrrrrGGgg"/>
   </tlLogic>

   <tlLogic id="1/1" type="static" programID="1" offset="0">
      <phase duration="2"     state="uuuurrrruuuurrrr"/>
      <phase duration="10000" state="GGggrrrrGGggrrrr"/>
    </tlLogic>
    <tlLogic id="bottom0" type="static" programID="0" offset="0">
        <phase duration="31" state="G"/>
        <phase duration="4" state="y"/>
    </tlLogic>
    <tlLogic id="bottom1" type="static" programID="0" offset="0">
        <phase duration="31" state="G"/>
        <phase duration="4"  state="y"/>
    </tlLogic>
    <tlLogic id="left0" type="static" programID="0" offset="0">
        <phase duration="31" state="G"/>
        <phase duration="4"  state="y"/>
    </tlLogic>
    <tlLogic id="left1" type="static" programID="0" offset="0">
        <phase duration="31" state="G"/>
        <phase duration="4"  state="y"/>
    </tlLogic>
    <tlLogic id="right0" type="static" programID="0" offset="0">
        <phase duration="31" state="G"/>
        <phase duration="4"  state="y"/>
    </tlLogic>
    <tlLogic id="right1" type="static" programID="0" offset="0">
        <phase duration="31" state="G"/>
        <phase duration="4"  state="y"/>
    </tlLogic>
    <tlLogic id="top0" type="static" programID="0" offset="0">
        <phase duration="31" state="G"/>
        <phase duration="4"  state="y"/>
    </tlLogic>
    <tlLogic id="top1" type="static" programID="0" offset="0">
        <phase duration="31" state="G"/>
        <phase duration="4"  state="y"/>
    </tlLogic>

    <junction id="0/0" type="traffic_light" x="200.00" y="200.00" incLanes="0/1to0/0_0 1/0to0/0_0 bottom0to0/0_0 left0to0/0_0" intLanes=":0/0_0_0 :0/0_1_0 :0/0_16_0 :0/0_17_0 :0/0_4_0 :0/0_5_0 :0/0_18_0 :0/0_19_0 :0/0_8_0 :0/0_9_0 :0/0_20_0 :0/0_21_0 :0/0_12_0 :0/0_13_0 :0/0_22_0 :0/0_23_0" shape="196.75,204.75 203.25,204.75 204.75,203.25 204.75,196.75 203.25,195.25 196.75,195.25 195.25,196.75 195.25,203.25">
        <request index="0" response="0000000000000000" foes="1000010000100000" cont="0"/>
        <request index="1" response="0000000000000000" foes="0111110001100000" cont="0"/>
        <request index="2" response="0000001100000000" foes="0110001111100000" cont="1"/>
        <request index="3" response="0100001000010000" foes="0100001000010000" cont="1"/>
        <request index="4" response="0000001000000000" foes="0100001000001000" cont="0"/>
        <request index="5" response="0000011000000111" foes="1100011000000111" cont="0"/>
        <request index="6" response="0011011000000110" foes="0011111000000110" cont="1"/>
        <request index="7" response="0010000100000100" foes="0010000100000100" cont="1"/>
        <request index="8" response="0000000000000000" foes="0010000010000100" cont="0"/>
        <request index="9" response="0000000000000000" foes="0110000001111100" cont="0"/>
        <request index="10" response="0000000000000011" foes="1110000001100011" cont="1"/>
        <request index="11" response="0001000001000010" foes="0001000001000010" cont="1"/>
        <request index="12" response="0000000000000010" foes="0000100001000010" cont="0"/>
        <request index="13" response="0000011100000110" foes="0000011111000110" cont="0"/>
        <request index="14" response="0000011000110110" foes="0000011000111110" cont="1"/>
        <request index="15" response="0000010000100001" foes="0000010000100001" cont="1"/>
    </junction>
    <junction id="0/1" type="traffic_light" x="200.00" y="300.00" incLanes="top0to0/1_0 1/1to0/1_0 0/0to0/1_0 left1to0/1_0" intLanes=":0/1_0_0 :0/1_1_0 :0/1_16_0 :0/1_17_0 :0/1_4_0 :0/1_5_0 :0/1_18_0 :0/1_19_0 :0/1_8_0 :0/1_9_0 :0/1_20_0 :0/1_21_0 :0/1_12_0 :0/1_13_0 :0/1_22_0 :0/1_23_0" shape="196.75,304.75 203.25,304.75 204.75,303.25 204.75,296.75 203.25,295.25 196.75,295.25 195.25,296.75 195.25,303.25">
        <request index="0" response="0000000000000000" foes="1000010000100000" cont="0"/>
        <request index="1" response="0000000000000000" foes="0111110001100000" cont="0"/>
        <request index="2" response="0000001100000000" foes="0110001111100000" cont="1"/>
        <request index="3" response="0100001000010000" foes="0100001000010000" cont="1"/>
        <request index="4" response="0000001000000000" foes="0100001000001000" cont="0"/>
        <request index="5" response="0000011000000111" foes="1100011000000111" cont="0"/>
        <request index="6" response="0011011000000110" foes="0011111000000110" cont="1"/>
        <request index="7" response="0010000100000100" foes="0010000100000100" cont="1"/>