<?xml version="1.0" encoding="UTF-8"?>

<!-- generated on Wed Apr 28 16:33:38 2021 by Eclipse SUMO polyconvert Version 1.7.0
<configuration xmlns:xsi="http://www.w3.org/2001/XMLSchema-instance" xsi:noNamespaceSchemaLocation="http://sumo.dlr.de/xsd/polyconvertConfiguration.xsd">

    <input>
        <net-file value="map.net.xml"/>
        <osm-files value="map.osm"/>
    </input>

    <output>
        <output-file value="map.poly.xml"/>
    </output>

    <processing>
        <poi-layer-offset value="5"/>
    </processing>

</configuration>
-->

<additional xmlns:xsi="http://www.w3.org/2001/XMLSchema-instance" xsi:noNamespaceSchemaLocation="http://sumo.dlr.de/xsd/additional_file.xsd">
    <location netOffset="2.66,-251.41" convBoundary="0.00,-251.40,704.88,936.66" origBoundary="0.000000,0.000000,139.597362,35.415186" projParameter="+proj=tmerc +lat_0=35.4045016 +lon_0=139.5896303 +x_0=0 +y_0=0 +ellps=GRS80 +units=m +no_defs"/>

    <poly id="155991018" type="building" color="255,230,230" fill="1" layer="-1.00" shape="516.064716,296.144375 558.210526,293.362086 558.983500,278.683701 559.192556,276.353804 558.386343,241.038979 552.536760,241.404747 552.247402,220.113793 485.613008,222.406588 483.105856,226.001171 485.293658,249.167248 492.967974,266.630892 503.449190,279.723345 515.629706,278.991775 516.064716,296.144375"/>
    <poly id="155991018#1" type="shop" color="237,199,255" fill="1" layer="-1.00" shape="516.064716,296.144375 558.210526,293.362086 558.983500,278.683701 559.192556,276.353804 558.386343,241.038979 552.536760,241.404747 552.247402,220.113793 485.613008,222.406588 483.105856,226.001171 485.293658,249.167248 492.967974,266.630892 503.449190,279.723345 515.629706,278.991775 516.064716,296.144375"/>
    <poly id="156590265" type="amenity" color="237,199,199" fill="1" layer="-1.00" shape="441.803150,627.697797 422.803032,605.263173 394.666797,553.116275 381.025728,520.496940 305.382634,545.113462 303.674735,554.688228 298.805920,567.058783 299.895523,577.243858 306.234558,600.287999 325.479389,645.644272 329.011789,667.467901 441.803150,627.697797"/>
    <poly id="285484223" type="building" color="255,230,230" fill="1" layer="-1.00" shape="291.288821,458.429227 316.485181,450.896695 310.291309,430.348890 309.292295,427.042602 292.007219,432.212210 295.294900,443.129611 287.383564,445.492552 291.288821,458.429227"/>
    <poly id="295173607" type="water" color="181,209,209" fill="0" layer="-4.00" shape="335.975327,11.886936 381.290447,58.331585 394.569610,74.341958 402.853023,87.556237 405.768301,97.996580 405.767850,108.059569 404.068909,116.180891 388.353442,148.077771 387.617277,157.896643 390.904952,168.569989 401.994861,184.946411 412.467354,195.131915 431.741260,209.234316 440.042880,217.933046 443.966197,230.581319 444.174115,250.829354 451.720937,276.469831 471.138943,309.633207 491.674105,341.265604 505.070410,363.023266 513.662121,377.946271 514.496900,393.024166 511.126311,406.992342 510.880439,418.153708 514.049843,427.972796 521.115433,444.715271 523.793859,462.777780 527.444592,473.207116 533.166460,479.642443 542.912133,484.735543 557.771635,487.277161 567.281152,492.015239 573.729435,501.224341 577.016780,511.653674 577.015531,531.180545 573.490073,551.672440"/>
    <poly id="321571229" type="tourism" color="207,245,201" fill="1" layer="-2.00" shape="223.481544,214.019739 239.295481,210.425424 253.519524,219.201803 266.490379,217.160730 256.881248,185.862000 239.859277,186.260948 240.858199,195.025872 233.246446,195.824499 233.645969,201.205491 222.028512,202.603146 222.691459,207.773342 223.481544,214.019739"/>
    <poly id="321587302" type="amenity" color="237,199,199" fill="1" layer="-1.00" shape="160.595231,404.960082 182.339978,402.874666 192.068824,357.852125 124.755046,306.415420 69.648203,261.891371 54.424818,267.505244 66.114591,299.891066 46.958122,339.266430 90.002529,365.239696 142.093207,401.720091 160.595231,404.960082"/>
    <poly id="321587303" type="tourism" color="207,245,201" fill="1" layer="-2.00" shape="180.739780,483.045743 188.950361,501.385634 174.935253,511.148790 164.063333,494.228998 168.613928,491.178008 180.739780,483.045743"/>
    <poly id="321605789" type="building" color="255,230,230" fill="1" layer="-1.00" shape="215.830368,345.748220 227.147938,342.719612 223.133588,327.874657 211.816001,330.903270 215.830368,345.748220"/>
    <poly id="321605792" type="amenity" color="237,199,199" fill="1" layer="-1.00" shape="192.677434,355.688650 212.487635,352.882104 204.704474,307.692765 233.779662,300.481840 220.519108,268.228899 185.866757,276.715654 189.018149,298.583588 169.389438,304.640968 178.153862,344.060993 192.677434,355.688650"/>
    <poly id="321605795" type="landuse" color="194,194,130" fill="1" layer="-3.00" shape="290.581658,417.655772 311.735961,417.024071 312.262953,411.831717 322.981177,403.710692 322.372736,400.315658 289.483058,403.831602 288.756063,414.981864 290.581658,417.655772"/>
    <poly id="321605799" type="building" color="255,230,230" fill="1" layer="-1.00" shape="178.980997,314.704143 180.070886,318.875813 192.296790,315.702947 188.518524,301.235237 173.131665,305.229063 175.820065,315.525097 178.980997,314.704143"/>
    <poly id="321605800" type="building" color="255,230,230" fill="1" layer="-1.00" shape="184.993626,333.343543 181.115434,319.253057 187.119389,317.611147 188.754222,323.569093 195.175999,321.816248 197.973369,331.990249 187.028202,334.974522 186.474176,332.944160 184.993626,333.343543"/>
    <poly id="321605801" type="parking" color="184,184,179" fill="1" layer="-1.00" shape="211.480637,300.359251 229.637900,295.145132 220.618938,271.734861 198.937361,277.681179 204.904637,292.836820 211.480637,300.359251"/>
    <poly id="321605802" type="building" color="255,230,230" fill="1" layer="-1.00" shape="203.223004,349.098562 192.269017,340.544225 187.600198,346.479851 198.554183,355.034182 203.223004,349.098562"/>
    <poly id="482009187" type="parking" color="184,184,179" fill="1" layer="-1.00" shape="334.720088,304.390378 345.120409,299.997224 336.074422,278.761419 325.674081,283.154583 334.720088,304.390378"/>
    <poly id="884053101" type="building" color="255,230,230" fill="1" layer="-1.00" shape="414.738587,185.756907 426.610575,181.197494 423.304680,172.654337 419.516903,174.107580 418.971975,172.687419 410.878670,175.793594 414.738587,185.756907"/>
    <poly id="884053102" type="building" color="255,230,230" fill="1" layer="-1.00" shape="377.739426,262.220702 389.711238,256.984461 386.359879,249.406563 374.388059,254.642809 377.739426,262.220702"/>
    <poly id="884053103" type="building" color="255,230,230" fill="1" layer="-1.00" shape="390.665117,253.556206 398.631196,250.094973 396.633101,245.534919 388.667019,248.985059 390.665117,253.556206"/>
    <poly id="884053104" type="building" color="255,230,230" fill="1" layer="-1.00" shape="392.436852,241.584985 399.185783,238.456544 394.735445,228.937003 387.995592,232.054353 392.436852,241.584985"/>
    <poly id="884053105" type="building" color="255,230,230" fill="1" layer="-1.00" shape="386.079102,230.645230 392.800798,227.328172 388.913531,219.528354 382.191831,222.845415 386.079102,230.645230"/>
    <poly id="884053106" type="building" color="255,230,230" fill="1" layer="-1.00" shape="375.961213,212.094285 382.755589,208.655180 379.622143,202.508524 372.827763,205.947632 375.961213,212.094285"/>
    <poly id="884053107" type="building" color="255,230,230" fill="1" layer="-1.00" shape="371.492588,204.594010 376.915367,202.053524 372.283334,192.256617 366.851467,194.808201 371.492588,204.594010"/>
    <poly id="884053108" type="building" color="255,230,230" fill="1" layer="-1.00" shape="353.536201,176.246058 358.114231,174.193699 356.070681,169.678032 358.314281,168.679587 356.225316,164.086255 349.403681,167.159251 353.536201,176.246058"/>
    <poly id="888817270" type="building" color="255,230,230" fill="1" layer="-1.00" shape="432.850893,178.268761 443.714640,174.142020 440.990016,167.041210 430.126261,171.179050 432.850893,178.268761"/>
    <poly id="888817271" type="building" color="255,230,230" fill="1" layer="-1.00" shape="418.205376,250.650598 422.710723,248.509510 417.052458,236.715466 412.538024,238.856556 418.205376,250.650598"/>
    <poly id="888817272" type="building" color="255,230,230" fill="1" layer="-1.00" shape="425.290230,250.850635 431.112657,248.276916 430.268013,246.379663 431.203598,245.969200 430.231803,243.794571 430.831305,243.528324 427.915919,236.982249 428.370088,236.771469 426.726207,233.087915 418.914517,236.538035 425.290230,250.850635"/>
    <poly id="888817273" type="building" color="255,230,230" fill="1" layer="-1.00" shape="425.807171,267.814622 434.336428,263.898560 429.840733,254.179293 421.302386,258.106453 425.807171,267.814622"/>
    <poly id="888817274" type="building" color="255,230,230" fill="1" layer="-1.00" shape="429.530617,281.306086 438.032578,278.122284 434.236312,268.081298 427.487419,270.610593 429.939558,277.090078 428.186483,277.744588 429.530617,281.306086"/>
    <poly id="888817275" type="building" color="255,230,230" fill="1" layer="-1.00" shape="418.212556,291.801244 422.627041,289.859858 418.049626,279.552567 410.319730,282.947225 410.692100,283.779352 408.584774,284.700126 411.145952,290.469543 413.053445,289.626424 414.134225,292.056237 417.640379,290.514220 418.212556,291.801244"/>
    <poly id="888817276" type="building" color="255,230,230" fill="1" layer="-1.00" shape="422.055068,284.223668 428.149972,281.516821 425.225513,274.970746 419.121522,277.677594 422.055068,284.223668"/>
    <poly id="888817277" type="building" color="255,230,230" fill="1" layer="-1.00" shape="417.877230,275.591713 422.564217,273.650339 418.994939,265.140455 414.317032,267.081831 417.877230,275.591713"/>
    <poly id="888817278" type="building" color="255,230,230" fill="1" layer="-1.00" shape="408.303357,281.149775 417.068768,276.956337 412.046271,266.549176 402.063686,271.330589 406.105305,279.707350 407.331554,279.130475 408.303357,281.149775"/>
    <poly id="888817279" type="building" color="255,230,230" fill="1" layer="-1.00" shape="396.803273,300.432041 406.622248,297.392499 404.960278,292.066916 404.106453,292.333153 402.989388,288.771670 394.033312,291.544977 396.803273,300.432041"/>
    <poly id="888817280" type="building" color="255,230,230" fill="1" layer="-1.00" shape="315.881889,299.874114 320.614258,297.910499 316.581694,288.268968 311.858405,290.232585 315.881889,299.874114"/>
    <poly id="888817281" type="building" color="255,230,230" fill="1" layer="-1.00" shape="313.964911,312.644173 317.343865,311.434956 317.598166,312.156128 322.930011,310.259104 322.630298,309.426982 325.028267,308.572768 322.666895,302.015651 312.975102,305.465797 313.374719,306.586386 311.966822,307.085604 313.964911,312.644173"/>
    <poly id="888817282" type="building" color="255,230,230" fill="1" layer="-1.00" shape="326.100097,307.884928 331.649946,305.832590 328.480251,297.378230 322.930397,299.441665 326.100097,307.884928"/>
    <poly id="888817283" type="building" color="255,230,230" fill="1" layer="-1.00" shape="330.114458,318.003540 335.382726,315.951194 332.076789,307.541206 326.808517,309.593554 330.114458,318.003540"/>
    <poly id="888817284" type="building" color="255,230,230" fill="1" layer="-1.00" shape="317.252610,323.539390 329.478600,319.168472 326.672206,311.402003 321.803604,313.143714 322.030660,313.742842 314.673263,316.372053 317.252610,323.539390"/>
    <poly id="888817285" type="building" color="255,230,230" fill="1" layer="-1.00" shape="321.058100,332.615079 325.018375,331.117421 321.821429,322.751820 317.852068,324.260574 321.058100,332.615079"/>
    <poly id="888817286" type="building" color="255,230,230" fill="1" layer="-1.00" shape="326.090195,330.629287 329.868805,329.264763 327.144150,321.820047 323.365538,323.184572 326.090195,330.629287"/>
    <poly id="888817287" type="building" color="255,230,230" fill="1" layer="-1.00" shape="310.540950,301.970848 314.483072,300.417711 310.777482,291.142322 306.835357,292.706556 310.540950,301.970848"/>
    <poly id="888817288" type="building" color="255,230,230" fill="1" layer="-1.00" shape="334.856257,306.487302 343.249169,303.159173 343.557966,303.913632 354.548692,299.564891 360.706425,314.975824 360.206807,316.162949 352.295311,319.346848 351.350679,319.091631 351.096377,318.459217 349.352397,319.158122 350.932701,323.119030 342.794136,326.336213 334.856257,306.487302"/>
    <poly id="888817289" type="building" color="255,230,230" fill="1" layer="-1.00" shape="365.120679,318.171306 371.542537,315.375676 368.645300,308.785241 362.223437,311.580873 365.120679,318.171306"/>
    <poly id="888817290" type="building" color="255,230,230" fill="1" layer="-1.00" shape="360.898026,293.507376 379.309897,283.988783 374.968509,275.667495 356.556625,285.186097 360.898026,293.507376"/>
    <poly id="888817291" type="building" color="255,230,230" fill="1" layer="-1.00" shape="363.150030,308.662975 382.306654,299.954339 381.770799,298.789362 385.885528,296.914514 380.944768,286.163434 357.673392,296.746932 363.150030,308.662975"/>
    <poly id="888817292" type="building" color="255,230,230" fill="1" layer="-1.00" shape="391.463061,285.298488 394.996442,284.233540 394.669497,283.146235 399.447284,281.704119 398.920539,279.973306 402.426674,278.908360 401.191547,274.891984 395.450930,276.633616 395.242048,275.945729 387.303288,278.352959 389.237723,284.665988 391.090704,284.100233 391.463061,285.298488"/>
    <poly id="888817293" type="building" color="255,230,230" fill="1" layer="-1.00" shape="384.469376,277.775908 391.436290,274.236963 389.274685,270.043032 382.316851,273.581979 384.469376,277.775908"/>
    <poly id="888817294" type="building" color="255,230,230" fill="1" layer="-1.00" shape="387.149243,269.754475 395.197078,265.749598 392.890159,261.167341 390.646573,262.287820 389.238806,259.502962 384.551802,261.843766 384.061353,260.867402 377.866517,263.962593 381.136176,270.453193 383.434258,269.299430 383.770306,269.976228 386.558889,268.589495 387.149243,269.754475"/>
    <poly id="888817295" type="building" color="255,230,230" fill="1" layer="-1.00" shape="374.660756,249.761104 390.047927,242.783120 381.764844,224.676040 375.061329,227.704642 379.121139,236.580658 370.437465,240.518955 374.660756,249.761104"/>
    <poly id="888817296" type="building" color="255,230,230" fill="1" layer="-1.00" shape="344.558499,267.345180 362.534356,259.324335 364.105849,256.639455 358.565614,244.335091 338.282571,253.376579 344.558499,267.345180"/>
    <poly id="888817300" type="building" color="255,230,230" fill="1" layer="-1.00" shape="317.966214,177.576116 327.176749,173.759830 322.626436,162.875661 313.415892,166.691951 317.966214,177.576116"/>
    <poly id="888817301" type="building" color="255,230,230" fill="1" layer="-1.00" shape="297.509668,211.359110 302.169403,209.728327 303.441011,210.904419 307.692001,209.318005 312.578315,222.299098 307.364500,224.251605 304.539672,222.975607 303.077262,223.485919 302.250771,221.144887 301.097192,221.544262 297.509668,211.359110"/>
    <poly id="888817302" type="building" color="255,230,230" fill="1" layer="-1.00" shape="313.413168,245.431801 320.180216,242.824758 317.282948,235.368945 310.515895,237.964896 313.413168,245.431801"/>
    <poly id="888817303" type="building" color="255,230,230" fill="1" layer="-1.00" shape="291.505121,228.578057 299.825424,225.227696 297.518483,219.535983 289.198175,222.886346 291.505121,228.578057"/>
    <poly id="888817304" type="building" color="255,230,230" fill="1" layer="-1.00" shape="284.357171,212.235177 290.997085,209.195411 290.542956,208.219053 294.230790,206.532761 291.605928,200.852135 284.857008,203.925182 285.501871,205.323148 281.923038,206.953973 284.357171,212.235177"/>
    <poly id="888817305" type="building" color="255,230,230" fill="1" layer="-1.00" shape="290.306425,219.724361 296.310498,217.117276 293.213358,210.060877 285.356283,213.477827 287.726826,218.869979 289.579823,218.060117 290.306425,219.724361"/>
    <poly id="888817306" type="building" color="255,230,230" fill="1" layer="-1.00" shape="277.253379,236.199743 284.647174,233.226563 281.359315,225.149440 283.203225,224.406146 279.506649,215.319383 270.278014,219.035864 277.253379,236.199743"/>
    <poly id="888817307" type="building" color="255,230,230" fill="1" layer="-1.00" shape="269.242559,218.070585 277.172288,214.664718 274.683667,208.906437 266.744851,212.312306 269.242559,218.070585"/>
    <poly id="888817308" type="building" color="255,230,230" fill="1" layer="-1.00" shape="222.654070,250.898860 233.853658,248.780033 233.363233,246.206025 239.567064,245.030137 238.277431,238.317744 220.873997,241.612462 222.654070,250.898860"/>
    <poly id="888817309" type="building" color="255,230,230" fill="1" layer="-1.00" shape="241.928706,244.309037 245.643749,243.221846 245.307702,242.101261 248.259755,241.235946 243.464280,224.915353 236.797173,226.856769 241.928706,244.309037"/>
    <poly id="888817310" type="building" color="255,230,230" fill="1" layer="-1.00" shape="246.778552,265.034270 265.871528,257.900847 261.929743,247.438328 257.824110,248.969294 258.069337,249.612800 243.081976,255.204170 246.778552,265.034270"/>
    <poly id="888817311" type="building" color="255,230,230" fill="1" layer="-1.00" shape="232.208979,273.332802 243.136097,269.327862 238.712922,257.389731 237.813682,257.711457 236.078922,253.018308 226.051027,256.690434 232.208979,273.332802"/>
    <poly id="888817312" type="building" color="255,230,230" fill="1" layer="-1.00" shape="239.702376,280.478054 245.942565,277.527002 242.718234,270.759082 236.468959,273.721231 239.702376,280.478054"/>
    <poly id="888817313" type="building" color="255,230,230" fill="1" layer="-1.00" shape="248.376820,278.392463 252.773108,276.462088 250.893017,272.223819 250.157274,272.556643 248.649567,269.139400 244.979935,270.759142 248.376820,278.392463"/>
    <poly id="888817314" type="building" color="255,230,230" fill="1" layer="-1.00" shape="253.418014,276.328968 258.014137,274.287653 254.735331,266.964986 251.201946,268.529256 251.556167,269.305902 250.484343,269.782949 253.418014,276.328968"/>
    <poly id="888817315" type="building" color="255,230,230" fill="1" layer="-1.00" shape="258.822589,272.434843 270.258423,266.854487 267.942361,262.139125 261.384237,265.334238 259.249823,260.996107 254.363023,263.381353 258.822589,272.434843"/>
    <poly id="888817316" type="building" color="255,230,230" fill="1" layer="-1.00" shape="269.604030,280.545462 273.655165,278.548517 269.177449,269.561588 265.117227,271.569629 269.604030,280.545462"/>
    <poly id="888817317" type="building" color="255,230,230" fill="1" layer="-1.00" shape="262.155775,283.662885 268.068976,280.700744 265.453187,275.519391 259.539983,278.481534 262.155775,283.662885"/>
    <poly id="888817318" type="building" color="255,230,230" fill="1" layer="-1.00" shape="252.981725,287.057636 260.366397,283.762687 258.504474,279.613175 251.110717,282.908125 252.981725,287.057636"/>
    <poly id="888817319" type="building" color="255,230,230" fill="1" layer="-1.00" shape="255.370516,289.542940 262.509430,303.955301 253.271787,308.492815 251.418828,308.725755 249.693046,308.481621 247.903702,307.516324 242.199822,296.010853 255.370516,289.542940"/>
    <poly id="888817320" type="building" color="255,230,230" fill="1" layer="-1.00" shape="265.779386,302.646209 270.938661,300.238788 268.286560,294.624735 270.693618,293.493136 273.273058,298.962955 278.777501,296.389126 279.658607,294.957923 274.626909,283.507926 268.722803,286.070650 269.985271,288.944243 265.906899,290.719292 264.762502,288.111979 259.040066,290.597051 264.080861,302.080324 265.779386,302.646209"/>
    <poly id="888817321" type="building" color="255,230,230" fill="1" layer="-1.00" shape="244.997568,290.530092 252.018904,287.434833 250.138814,283.207658 243.117476,286.302919 244.997568,290.530092"/>
    <poly id="888817322" type="building" color="255,230,230" fill="1" layer="-1.00" shape="237.776401,293.936007 244.189159,290.973863 242.227318,286.768878 237.712952,288.854582 238.421396,290.363495 237.785570,290.651943 238.212452,291.572824 236.949884,292.160816 237.776401,293.936007"/>
    <poly id="888817323" type="building" color="255,230,230" fill="1" layer="-1.00" shape="196.912356,253.039565 211.772504,248.491027 214.806048,258.298909 199.945915,262.847442 196.912356,253.039565"/>
    <poly id="888817324" type="building" color="255,230,230" fill="1" layer="-1.00" shape="230.811089,237.363398 236.751522,235.887941 235.034979,229.053495 229.094542,230.540047 230.811089,237.363398"/>
    <poly id="888817325" type="building" color="255,230,230" fill="1" layer="-1.00" shape="253.564272,243.133305 257.279322,241.879696 256.643552,240.037940 258.959783,239.250274 257.252288,234.268657 251.221004,236.321027 253.564272,243.133305"/>
    <poly id="888817326" type="building" color="255,230,230" fill="1" layer="-1.00" shape="264.346066,240.493048 268.651531,239.006470 268.333647,238.096687 270.132134,237.475431 269.323800,235.145497 269.995962,234.912526 268.915157,231.805948 262.129956,234.146754 264.346066,240.493048"/>
    <poly id="888817327" type="building" color="255,230,230" fill="1" layer="-1.00" shape="247.115502,232.948093 253.292106,231.339516 251.239524,223.528714 245.062915,225.137293 247.115502,232.948093"/>
    <poly id="888817328" type="building" color="255,230,230" fill="1" layer="-1.00" shape="255.517464,232.049646 261.621418,229.986186 259.259990,223.040768 253.146949,225.093135 255.517464,232.049646"/>
    <poly id="888817329" type="building" color="255,230,230" fill="1" layer="-1.00" shape="263.083762,231.650449 271.149701,229.043407 267.743817,218.591997 262.993264,220.134036 265.309268,227.268065 262.002960,228.333070 263.083762,231.650449"/>
    <poly id="888817330" type="building" color="255,230,230" fill="1" layer="-1.00" shape="222.681928,226.068680 227.505121,225.147931 226.151902,218.091599 221.328706,219.001255 222.681928,226.068680"/>
    <poly id="888817331" type="building" color="255,230,230" fill="1" layer="-1.00" shape="220.175587,200.583846 229.740244,199.064094 228.859311,193.538858 223.136863,194.448490 222.882572,192.861926 219.031274,193.472047 220.175587,200.583846"/>
    <poly id="888817332" type="building" color="255,230,230" fill="1" layer="-1.00" shape="231.348147,192.196449 235.299363,191.519767 233.773611,182.643882 220.085133,184.973450 221.084146,190.764963 230.812315,189.112079 231.348147,192.196449"/>
    <poly id="888817333" type="building" color="255,230,230" fill="1" layer="-1.00" shape="215.761869,170.172873 234.991157,167.432933 236.426049,177.418296 217.196783,180.147139 215.761869,170.172873"/>
    <poly id="888817334" type="building" color="255,230,230" fill="1" layer="-1.00" shape="242.711477,183.742502 249.414922,182.810720 248.506776,176.364612 241.803326,177.296395 242.711477,183.742502"/>
    <poly id="888817335" type="building" color="255,230,230" fill="1" layer="-1.00" shape="252.530468,182.844091 260.196754,181.357603 258.779976,174.134843 257.744482,174.334520 257.108746,171.117008 250.477947,172.414915 252.530468,182.844091"/>
    <poly id="888817336" type="building" color="255,230,230" fill="1" layer="-1.00" shape="281.732506,200.041902 289.825752,196.702620 289.526029,195.981448 290.134612,195.726287 288.145540,190.955456 279.443707,194.538807 281.732506,200.041902"/>
    <poly id="888817337" type="building" color="255,230,230" fill="1" layer="-1.00" shape="266.472526,206.476429 271.622761,204.490611 271.241296,203.503162 273.076125,202.804244 271.577511,198.943206 274.892922,197.667403 273.339813,193.684320 263.039331,197.655957 266.472526,206.476429"/>
    <poly id="888817338" type="building" color="255,230,230" fill="1" layer="-1.00" shape="274.309575,264.502509 283.311082,260.930258 277.552806,246.573398 276.035899,247.172471 274.500961,243.344715 267.025429,246.306806 274.309575,264.502509"/>
    <poly id="888817339" type="building" color="255,230,230" fill="1" layer="-1.00" shape="276.688875,280.334874 285.962837,277.528175 284.709493,273.445246 282.738434,274.044304 280.595031,267.065602 273.301202,269.284341 276.688875,280.334874"/>
    <poly id="888817340" type="building" color="255,230,230" fill="1" layer="-1.00" shape="302.257703,285.627914 297.062074,288.168454 292.448150,278.826474 297.652867,276.285933 302.257703,285.627914"/>
    <poly id="888817341" type="building" color="255,230,230" fill="1" layer="-1.00" shape="292.757027,277.284306 299.569481,274.055939 295.981889,266.544636 289.160346,269.773005 292.757027,277.284306"/>
    <poly id="888817342" type="building" color="255,230,230" fill="1" layer="-1.00" shape="301.504821,255.039501 308.108373,252.132884 305.111158,245.387139 300.433261,247.450617 301.305180,249.403332 299.379522,250.257568 301.504821,255.039501"/>
    <poly id="888817343" type="building" color="255,230,230" fill="1" layer="-1.00" shape="298.080795,245.231577 304.230181,242.735450 300.724362,234.192331 294.574972,236.699555 298.080795,245.231577"/>
    <poly id="888817344" type="building" color="255,230,230" fill="1" layer="-1.00" shape="284.537572,252.476052 293.738933,248.637542 291.077771,242.280131 281.867322,246.118643 284.537572,252.476052"/>
    <poly id="888817345" type="building" color="255,230,230" fill="1" layer="-1.00" shape="287.689159,260.908206 296.427271,257.125158 294.356466,252.387607 292.903141,253.008869 291.931315,250.789876 284.646524,253.940570 287.689159,260.908206"/>
    <poly id="888817346" type="building" color="255,230,230" fill="1" layer="-1.00" shape="290.604609,268.397295 296.545067,265.812397 296.227181,265.091224 300.305571,263.305094 297.925965,257.890749 287.907112,262.261780 290.604609,268.397295"/>
    <poly id="888817347" type="building" color="255,230,230" fill="1" layer="-1.00" shape="337.627954,270.251758 343.105176,267.888770 337.065406,253.975653 331.588177,256.338645 337.627954,270.251758"/>
    <poly id="888817348" type="building" color="255,230,230" fill="1" layer="-1.00" shape="327.154876,276.353519 336.401646,272.537243 333.104759,264.626523 323.857982,268.453896 327.154876,276.353519"/>
    <poly id="888817349" type="building" color="255,230,230" fill="1" layer="-1.00" shape="312.131184,281.944772 317.553890,279.670525 314.229738,271.804190 308.807028,274.078439 312.131184,281.944772"/>
    <poly id="888817350" type="building" color="255,230,230" fill="1" layer="-1.00" shape="307.980487,273.368343 313.839193,270.927686 310.169905,262.195945 304.320277,264.625510 307.980487,273.368343"/>
    <poly id="888817351" type="building" color="255,230,230" fill="1" layer="-1.00" shape="304.919817,263.061162 311.596032,260.065791 308.907623,254.118882 300.632746,257.835364 302.848872,262.717154 304.438446,262.007139 304.919817,263.061162"/>
    <poly id="888817352" type="building" color="255,230,230" fill="1" layer="-1.00" shape="319.942770,279.182437 326.110309,276.553188 321.069588,264.792510 314.902042,267.410669 319.942770,279.182437"/>
    <poly id="888817353" type="building" color="255,230,230" fill="1" layer="-1.00" shape="320.906278,259.511376 328.445405,256.371815 326.983143,252.910182 330.816293,251.301574 332.133236,254.430358 341.670698,250.447677 337.056861,239.508023 316.156185,248.238883 320.906278,259.511376"/>
    <poly id="888817354" type="building" color="255,230,230" fill="1" layer="-1.00" shape="323.340321,266.268201 330.543355,263.439285 328.499835,258.280124 321.296796,261.120137 323.340321,266.268201"/>
    <poly id="888817355" type="building" color="255,230,230" fill="1" layer="-1.00" shape="313.821296,263.161319 318.308433,261.364117 315.928854,255.450501 311.441715,257.247704 313.821296,263.161319"/>
    <poly id="888817356" type="building" color="255,230,230" fill="1" layer="-1.00" shape="311.614324,256.393410 315.138636,254.984491 312.786301,249.137446 309.252904,250.546365 311.614324,256.393410"/>
    <poly id="888817357" type="building" color="255,230,230" fill="1" layer="-1.00" shape="341.525398,249.637750 346.702882,247.452270 343.069940,238.942414 337.892452,241.138991 341.525398,249.637750"/>
    <poly id="888817358" type="building" color="255,230,230" fill="1" layer="-1.00" shape="349.164467,246.209746 353.388215,244.223939 352.143923,241.605516 356.149673,239.730650 348.375113,223.321126 340.145601,227.192901 349.164467,246.209746"/>
    <poly id="888817359" type="building" color="255,230,230" fill="1" layer="-1.00" shape="340.754218,226.039064 348.066315,222.533383 345.832027,217.917857 338.519928,221.423540 340.754218,226.039064"/>
    <poly id="888817360" type="building" color="255,230,230" fill="1" layer="-1.00" shape="335.032195,215.709585 343.670454,211.970958 341.645077,207.311062 332.997731,211.049690 335.032195,215.709585"/>
    <poly id="888817361" type="building" color="255,230,230" fill="1" layer="-1.00" shape="332.815657,222.199965 346.040986,216.719626 344.242678,212.414772 331.017344,217.895114 332.815657,222.199965"/>
    <poly id="888817362" type="building" color="255,230,230" fill="1" layer="-1.00" shape="292.759813,191.011078 321.717560,178.397264 328.602070,194.329655 324.678053,196.237820 328.819691,204.703308 327.439029,205.124860 326.575650,218.283271 317.655870,220.746001 310.462546,204.403100 300.588956,208.829595 292.759813,191.011078"/>
    <poly id="888817363" type="building" color="255,230,230" fill="1" layer="-1.00" shape="330.854264,206.456361 337.130854,203.860408 334.006508,196.360202 327.729914,198.956158 330.854264,206.456361"/>
    <poly id="888817364" type="building" color="255,230,230" fill="1" layer="-1.00" shape="306.573581,244.399750 310.570230,242.746760 306.882765,233.881882 302.877030,235.534874 306.573581,244.399750"/>