<?xml version="1.0" encoding="UTF-8"?>

<!-- generated on 08/28/13 08:35:45 by SUMO duarouter Version 0.18.0
<?xml version="1.0" encoding="UTF-8"?>

<configuration xmlns:xsi="http://www.w3.org/2001/XMLSchema-instance" xsi:noNamespaceSchemaLocation="https://sumo.sf.net/xsd/duarouterConfiguration.xsd">

    <input>
        <net-file value="data/rilsa1.net.xml"/>
        <flow-files value="data/input_flows.flows.xml"/>
    </input>

    <output>
        <output-file value="data/genroutes.rou.xml"/>
        <vtype-output value=""/>
    </output>

    <report>
        <verbose value="true"/>
        <no-step-log value="true"/>
    </report>

</configuration>
-->

<routes xmlns:xsi="http://www.w3.org/2001/XMLSchema-instance" xsi:noNamespaceSchemaLocation="https://sumo.sf.net/xsd/routes_file.xsd">
    <vehicle id="em2mnLKW.0" type="LKW" depart="0.00" departLane="best" departPos="base" departSpeed="max" arrivalPos="-1.00">
        <route edges="em mn"/>
    </vehicle>
    <vehicle id="em2mnPKW.0" type="PKW" depart="0.00" departLane="best" departPos="base" departSpeed="max" arrivalPos="-1.00">
        <route edges="em mn"/>
    </vehicle>
    <vehicle id="em2msLKW.0" type="LKW" depart="0.00" departLane="best" departPos="base" departSpeed="max" arrivalPos="-1.00">
        <route edges="em ms"/>
    </vehicle>
    <vehicle id="em2msPKW.0" type="PKW" depart="0.00" departLane="best" departPos="base" departSpeed="max" arrivalPos="-1.00">
        <route edges="em ms"/>
    </vehicle>
    <vehicle id="em2mwLKW.0" type="LKW" depart="0.00" departLane="best" departPos="base" departSpeed="max" arrivalPos="-1.00">
        <route edges="em mw"/>
    </vehicle>
    <vehicle id="em2mwPKW.0" type="PKW" depart="0.00" departLane="best" departPos="base" departSpeed="max" arrivalPos="-1.00">
        <route edges="em mw"/>
    </vehicle>
    <vehicle id="nm2meLKW.0" type="LKW" depart="0.00" departLane="best" departPos="base" departSpeed="max" arrivalPos="-1.00">
        <route edges="nm me"/>
    </vehicle>
    <vehicle id="nm2mePKW.0" type="PKW" depart="0.00" departLane="best" departPos="base" departSpeed="max" arrivalPos="-1.00">
        <route edges="nm me"/>
    </vehicle>
    <vehicle id="nm2msLKW.0" type="LKW" depart="0.00" departLane="best" departPos="base" departSpeed="max" arrivalPos="-1.00">
        <route edges="nm ms"/>
    </vehicle>
    <vehicle id="nm2msPKW.0" type="PKW" depart="0.00" departLane="best" departPos="base" departSpeed="max" arrivalPos="-1.00">
        <route edges="nm ms"/>
    </vehicle>
    <vehicle id="nm2mwLKW.0" type="LKW" depart="0.00" departLane="best" departPos="base" departSpeed="max" arrivalPos="-1.00">
        <route edges="nm mw"/>
    </vehicle>
    <vehicle id="nm2mwPKW.0" type="PKW" depart="0.00" departLane="best" departPos="base" departSpeed="max" arrivalPos="-1.00">
        <route edges="nm mw"/>
    </vehicle>
    <vehicle id="sm2mePKW.0" type="PKW" depart="0.00" departLane="best" departPos="base" departSpeed="max" arrivalPos="-1.00">
        <route edges="sm me"/>
    </vehicle>
    <vehicle id="sm2mnLKW.0" type="LKW" depart="0.00" departLane="best" departPos="base" departSpeed="max" arrivalPos="-1.00">
        <route edges="sm mn"/>
    </vehicle>
    <vehicle id="sm2mnPKW.0" type="PKW" depart="0.00" departLane="best" departPos="base" departSpeed="max" arrivalPos="-1.00">
        <route edges="sm mn"/>
    </vehicle>
    <vehicle id="sm2mwLKW.0" type="LKW" depart="0.00" departLane="best" departPos="base" departSpeed="max" arrivalPos="-1.00">
        <route edges="sm mw"/>
    </vehicle>
    <vehicle id="sm2mwPKW.0" type="PKW" depart="0.00" departLane="best" departPos="base" departSpeed="max" arrivalPos="-1.00">
        <route edges="sm mw"/>
    </vehicle>
    <vehicle id="wm2meLKW.0" type="LKW" depart="0.00" departLane="best" departPos="base" departSpeed="max" arrivalPos="-1.00">
        <route edges="wm me"/>
    </vehicle>
    <vehicle id="wm2mePKW.0" type="PKW" depart="0.00" departLane="best" departPos="base" departSpeed="max" arrivalPos="-1.00">
        <route edges="wm me"/>
    </vehicle>
    <vehicle id="wm2mnLKW.0" type="LKW" depart="0.00" departLane="best" departPos="base" departSpeed="max" arrivalPos="-1.00">
        <route edges="wm mn"/>
    </vehicle>
    <vehicle id="wm2mnPKW.0" type="PKW" depart="0.00" departLane="best" departPos="base" departSpeed="max" arrivalPos="-1.00">
        <route edges="wm mn"/>
    </vehicle>
    <vehicle id="wm2msLKW.0" type="LKW" depart="0.00" departLane="best" departPos="base" departSpeed="max" arrivalPos="-1.00">
        <route edges="wm ms"/>
    </vehicle>
    <vehicle id="wm2msPKW.0" type="PKW" depart="0.00" departLane="best" departPos="base" departSpeed="max" arrivalPos="-1.00">
        <route edges="wm ms"/>
    </vehicle>
    <vehicle id="wm2mePKW.1" type="PKW" depart="5.64" departLane="best" departPos="base" departSpeed="max" arrivalPos="-1.00">
        <route edges="wm me"/>
    </vehicle>
    <vehicle id="em2mwPKW.1" type="PKW" depart="7.00" departLane="best" departPos="base" departSpeed="max" arrivalPos="-1.00">
        <route edges="em mw"/>
    </vehicle>
    <vehicle id="wm2mePKW.2" type="PKW" depart="11.28" departLane="best" departPos="base" departSpeed="max" arrivalPos="-1.00">
        <route edges="wm me"/>
    </vehicle>
    <vehicle id="em2mwPKW.2" type="PKW" depart="14.01" departLane="best" departPos="base" departSpeed="max" arrivalPos="-1.00">
        <route edges="em mw"/>
    </vehicle>
    <vehicle id="wm2mePKW.3" type="PKW" depart="16.93" departLane="best" departPos="base" departSpeed="max" arrivalPos="-1.00">
        <route edges="wm me"/>
    </vehicle>
    <vehicle id="em2mwPKW.3" type="PKW" depart="21.01" departLane="best" departPos="base" departSpeed="max" arrivalPos="-1.00">
        <route edges="em mw"/>
    </vehicle>
    <vehicle id="wm2mePKW.4" type="PKW" depart="22.57" departLane="best" departPos="base" departSpeed="max" arrivalPos="-1.00">
        <route edges="wm me"/>
    </vehicle>
    <vehicle id="sm2mnPKW.1" type="PKW" depart="23.84" departLane="best" departPos="base" departSpeed="max" arrivalPos="-1.00">
        <route edges="sm mn"/>
    </vehicle>
    <vehicle id="nm2msPKW.1" type="PKW" depart="24.83" departLane="best" departPos="base" departSpeed="max" arrivalPos="-1.00">
        <route edges="nm ms"/>
    </vehicle>
    <vehicle id="em2mwPKW.4" type="PKW" depart="28.01" departLane="best" departPos="base" departSpeed="max" arrivalPos="-1.00">
        <route edges="em mw"/>
    </vehicle>
    <vehicle id="wm2msPKW.1" type="PKW" depart="28.13" departLane="best" departPos="base" departSpeed="max" arrivalPos="-1.00">
        <route edges="wm ms"/>
    </vehicle>
    <vehicle id="wm2mePKW.5" type="PKW" depart="28.21" departLane="best" departPos="base" departSpeed="max" arrivalPos="-1.00">
        <route edges="wm me"/>
    </vehicle>
    <vehicle id="wm2mePKW.6" type="PKW" depart="33.85" departLane="best" departPos="base" departSpeed="max" arrivalPos="-1.00">
        <route edges="wm me"/>
    </vehicle>
    <vehicle id="em2mwPKW.5" type="PKW" depart="35.02" departLane="best" departPos="base" departSpeed="max" arrivalPos="-1.00">
        <route edges="em mw"/>
    </vehicle>
    <vehicle id="wm2mePKW.7" type="PKW" depart="39.49" departLane="best" departPos="base" departSpeed="max" arrivalPos="-1.00">
        <route edges="wm me"/>
    </vehicle>
    <vehicle id="sm2mwPKW.1" type="PKW" depart="39.56" departLane="best" departPos="base" departSpeed="max" arrivalPos="-1.00">
        <route edges="sm mw"/>
    </vehicle>
    <vehicle id="em2mwPKW.6" type="PKW" depart="42.02" departLane="best" departPos="base" departSpeed="max" arrivalPos="-1.00">
        <route edges="em mw"/>
    </vehicle>
    <vehicle id="wm2mePKW.8" type="PKW" depart="45.14" departLane="best" departPos="base" departSpeed="max" arrivalPos="-1.00">
        <route edges="wm me"/>
    </vehicle>
    <vehicle id="sm2mnPKW.2" type="PKW" depart="47.68" departLane="best" departPos="base" departSpeed="max" arrivalPos="-1.00">
        <route edges="sm mn"/>
    </vehicle>
    <vehicle id="em2mwPKW.7" type="PKW" depart="49.02" departLane="best" departPos="base" departSpeed="max" arrivalPos="-1.00">
        <route edges="em mw"/>
    </vehicle>
    <vehicle id="nm2msPKW.2" type="PKW" depart="49.65" departLane="best" departPos="base" departSpeed="max" arrivalPos="-1.00">
        <route edges="nm ms"/>
    </vehicle>
    <vehicle id="wm2mePKW.9" type="PKW" depart="50.78" departLane="best" departPos="base" departSpeed="max" arrivalPos="-1.00">
        <route edges="wm me"/>
    </vehicle>
    <vehicle id="wm2meLKW.1" type="LKW" depart="51.43" departLane="best" departPos="base" departSpeed="max" arrivalPos="-1.00">
        <route edges="wm me"/>
    </vehicle>
    <vehicle id="wm2mnPKW.1" type="PKW" depart="52.17" departLane="best" departPos="base" departSpeed="max" arrivalPos="-1.00">
        <route edges="wm mn"/>
    </vehicle>
    <vehicle id="em2mwPKW.8" type="PKW" depart="56.02" departLane="best" departPos="base" departSpeed="max" arrivalPos="-1.00">
        <route edges="em mw"/>
    </vehicle>
    <vehicle id="wm2msPKW.2" type="PKW" depart="56.25" departLane="best" departPos="base" departSpeed="max" arrivalPos="-1.00">
        <route edges="wm ms"/>
    </vehicle>
    <vehicle id="wm2mePKW.10" type="PKW" depart="56.42" departLane="best" departPos="base" departSpeed="max" arrivalPos="-1.00">
        <route edges="wm me"/>
    </vehicle>
    <vehicle id="wm2mePKW.11" type="PKW" depart="62.06" departLane="best" departPos="base" departSpeed="max" arrivalPos="-1.00">
        <route edges="wm me"/>
    </vehicle>
    <vehicle id="em2mwPKW.9" type="PKW" depart="63.03" departLane="best" departPos="base" departSpeed="max" arrivalPos="-1.00">
        <route edges="em mw"/>
    </vehicle>
    <vehicle id="em2mwLKW.1" type="LKW" depart="63.16" departLane="best" departPos="base" departSpeed="max" arrivalPos="-1.00">
        <route edges="em mw"/>
    </vehicle>
    <vehicle id="nm2mwPKW.1" type="PKW" depart="63.16" departLane="best" departPos="base" departSpeed="max" arrivalPos="-1.00">
        <route edges="nm mw"/>
    </vehicle>
    <vehicle id="nm2mePKW.1" type="PKW" depart="66.67" departLane="best" departPos="base" departSpeed="max" arrivalPos="-1.00">
        <route edges="nm me"/>
    </vehicle>
    <vehicle id="wm2mePKW.12" type="PKW" depart="67.70" departLane="best" departPos="base" departSpeed="max" arrivalPos="-1.00">
        <route edges="wm me"/>
    </vehicle>
    <vehicle id="em2mnPKW.1" type="PKW" depart="69.23" departLane="best" departPos="base" departSpeed="max" arrivalPos="-1.00">
        <route edges="em mn"/>
    </vehicle>
    <vehicle id="em2mwPKW.10" type="PKW" depart="70.03" departLane="best" departPos="base" departSpeed="max" arrivalPos="-1.00">
        <route edges="em mw"/>
    </vehicle>
    <vehicle id="sm2mnPKW.3" type="PKW" depart="71.52" departLane="best" departPos="base" departSpeed="max" arrivalPos="-1.00">
        <route edges="sm mn"/>
    </vehicle>
    <vehicle id="wm2mePKW.13" type="PKW" depart="73.35" departLane="best" departPos="base" departSpeed="max" arrivalPos="-1.00">
        <route edges="wm me"/>
    </vehicle>
    <vehicle id="sm2mePKW.1" type="PKW" depart="73.47" departLane="best" departPos="base" departSpeed="max" arrivalPos="-1.00">
        <route edges="sm me"/>
    </vehicle>
    <vehicle id="nm2msPKW.3" type="PKW" depart="74.48" departLane="best" departPos="base" departSpeed="max" arrivalPos="-1.00">
        <route edges="nm ms"/>
    </vehicle>
    <vehicle id="em2mwPKW.11" type="PKW" depart="77.03" departLane="best" departPos="base" departSpeed="max" arrivalPos="-1.00">
        <route edges="em mw"/>
    </vehicle>
    <vehicle id="em2msPKW.1" type="PKW" depart="78.26" departLane="best" departPos="base" departSpeed="max" arrivalPos="-1.00">
        <route edges="em ms"/>
    </vehicle>
    <vehicle id="wm2mePKW.14" type="PKW" depart="78.99" departLane="best" departPos="base" departSpeed="max" arrivalPos="-1.00">
        <route edges="wm me"/>
    </vehicle>
    <vehicle id="sm2mwPKW.2" type="PKW" depart="79.12" departLane="best" departPos="base" departSpeed="max" arrivalPos="-1.00">
        <route edges="sm mw"/>
    </vehicle>
    <vehicle id="em2mwPKW.12" type="PKW" depart="84.04" departLane="best" departPos="base" departSpeed="max" arrivalPos="-1.00">
        <route edges="em mw"/>
    </vehicle>
    <vehicle id="wm2msPKW.3" type="PKW" depart="84.38" departLane="best" departPos="base" departSpeed="max" arrivalPos="-1.00">
        <route edges="wm ms"/>
    </vehicle>
    <vehicle id="wm2mePKW.15" type="PKW" depart="84.63" departLane="best" departPos="base" departSpeed="max" arrivalPos="-1.00">
        <route edges="wm me"/>
    </vehicle>
    <vehicle id="wm2mePKW.16" type="PKW" depart="90.27" departLane="best" departPos="base" departSpeed="max" arrivalPos="-1.00">
        <route edges="wm me"/>
    </vehicle>
    <vehicle id="em2mwPKW.13" type="PKW" depart="91.04" departLane="best" departPos="base" departSpeed="max" arrivalPos="-1.00">
        <route edges="em mw"/>
    </vehicle>
    <vehicle id="sm2mnPKW.4" type="PKW" depart="95.36" departLane="best" departPos="base" departSpeed="max" arrivalPos="-1.00">
        <route edges="sm mn"/>
    </vehicle>
    <vehicle id="wm2mePKW.17" type="PKW" depart="95.91" departLane="best" departPos="base" departSpeed="max" arrivalPos="-1.00">
        <route edges="wm me"/>
    </vehicle>
    <vehicle id="em2mwPKW.14" type="PKW" depart="98.04" departLane="best" departPos="base" departSpeed="max" arrivalPos="-1.00">
        <route edges="em mw"/>
    </vehicle>
    <vehicle id="nm2msPKW.4" type="PKW" depart="99.31" departLane="best" departPos="base" departSpeed="max" arrivalPos="-1.00">
        <route edges="nm ms"/>
    </vehicle>
    <vehicle id="wm2mePKW.18" type="PKW" depart="101.56" departLane="best" departPos="base" departSpeed="max" arrivalPos="-1.00">
        <route edges="wm me"/>
    </vehicle>
    <vehicle id="wm2meLKW.2" type="LKW" depart="102.86" departLane="best" departPos="base" departSpeed="max" arrivalPos="-1.00">
        <route edges="wm me"/>
    </vehicle>
    <vehicle id="wm2mnPKW.2" type="PKW" depart="104.35" departLane="best" departPos="base" departSpeed="max" arrivalPos="-1.00">
        <route edges="wm mn"/>
    </vehicle>
    <vehicle id="em2mwPKW.15" type="PKW" depart="105.05" departLane="best" departPos="base" departSpeed="max" arrivalPos="-1.00">
        <route edges="em mw"/>
    </vehicle>
    <vehicle id="wm2mePKW.19" type="PKW" depart="107.20" departLane="best" departPos="base" departSpeed="max" arrivalPos="-1.00">
        <route edges="wm me"/>
    </vehicle>
    <vehicle id="em2mwPKW.16" type="PKW" depart="112.05" departLane="best" departPos="base" departSpeed="max" arrivalPos="-1.00">
        <route edges="em mw"/>
    </vehicle>
    <vehicle id="wm2msPKW.4" type="PKW" depart="112.50" departLane="best" departPos="base" departSpeed="max" arrivalPos="-1.00">
        <route edges="wm ms"/>
    </vehicle>
    <vehicle id="wm2mePKW.20" type="PKW" depart="112.84" departLane="best" departPos="base" departSpeed="max" arrivalPos="-1.00">
        <route edges="wm me"/>
    </vehicle>
    <vehicle id="wm2mePKW.21" type="PKW" depart="118.48" departLane="best" departPos="base" departSpeed="max" arrivalPos="-1.00">
        <route edges="wm me"/>
    </vehicle>
    <vehicle id="sm2mwPKW.3" type="PKW" depart="118.68" departLane="best" departPos="base" departSpeed="max" arrivalPos="-1.00">
        <route edges="sm mw"/>
    </vehicle>
    <vehicle id="em2mwPKW.17" type="PKW" depart="119.05" departLane="best" departPos="base" departSpeed="max" arrivalPos="-1.00">
        <route edges="em mw"/>
    </vehicle>
    <vehicle id="sm2mnPKW.5" type="PKW" depart="119.21" departLane="best" departPos="base" departSpeed="max" arrivalPos="-1.00">
        <route edges="sm mn"/>
    </vehicle>
    <vehicle id="wm2mePKW.22" type="PKW" depart="124.12" departLane="best" departPos="base" departSpeed="max" arrivalPos="-1.00">
        <route edges="wm me"/>
    </vehicle>
    <vehicle id="nm2msPKW.5" type="PKW" depart="124.14" departLane="best" departPos="base" departSpeed="max" arrivalPos="-1.00">
        <route edges="nm ms"/>
    </vehicle>
    <vehicle id="em2mwPKW.18" type="PKW" depart="126.05" departLane="best" departPos="base" departSpeed="max" arrivalPos="-1.00">
        <route edges="em mw"/>
    </vehicle>
    <vehicle id="em2mwLKW.2" type="LKW" depart="126.31" departLane="best" departPos="base" departSpeed="max" arrivalPos="-1.00">
        <route edges="em mw"/>
    </vehicle>
    <vehicle id="nm2mwPKW.2" type="PKW" depart="126.31" departLane="best" departPos="base" departSpeed="max" arrivalPos="-1.00">
        <route edges="nm mw"/>
    </vehicle>
    <vehicle id="wm2mePKW.23" type="PKW" depart="129.77" departLane="best" departPos="base" departSpeed="max" arrivalPos="-1.00">
        <route edges="wm me"/>
    </vehicle>
    <vehicle id="em2mwPKW.19" type="PKW" depart="133.06" departLane="best" departPos="base" departSpeed="max" arrivalPos="-1.00">
        <route edges="em mw"/>
    </vehicle>
    <vehicle id="nm2mePKW.2" type="PKW" depart="133.33" departLane="best" departPos="base" departSpeed="max" arrivalPos="-1.00">
        <route edges="nm me"/>
    </vehicle>
    <vehicle id="wm2mePKW.24" type="PKW" depart="135.41" departLane="best" departPos="base" departSpeed="max" arrivalPos="-1.00">
        <route edges="wm me"/>
    </vehicle>
    <vehicle id="em2mnPKW.2" type="PKW" depart="138.46" departLane="best" departPos="base" departSpeed="max" arrivalPos="-1.00">
        <route edges="em mn"/>
    </vehicle>
    <vehicle id="em2mwPKW.20" type="PKW" depart="140.06" departLane="best" departPos="base" departSpeed="max" arrivalPos="-1.00">
        <route edges="em mw"/>
    </vehicle>
    <vehicle id="wm2msPKW.5" type="PKW" depart="140.63" departLane="best" departPos="base" departSpeed="max" arrivalPos="-1.00">
        <route edges="wm ms"/>
    </vehicle>
    <vehicle id="wm2mePKW.25" type="PKW" depart="141.05" departLane="best" departPos="base" departSpeed="max" arrivalPos="-1.00">
        <route edges="wm me"/>
    </vehicle>
    <vehicle id="sm2mnPKW.6" type="PKW" depart="143.05" departLane="best" departPos="base" departSpeed="max" arrivalPos="-1.00">
        <route edges="sm mn"/>
    </vehicle>
    <vehicle id="wm2mePKW.26" type="PKW" depart="146.69" departLane="best" departPos="base" departSpeed="max" arrivalPos="-1.00">
        <route edges="wm me"/>
    </vehicle>
    <vehicle id="sm2mePKW.2" type="PKW" depart="146.94" departLane="best" departPos="base" departSpeed="max" arrivalPos="-1.00">
        <route edges="sm me"/>
    </vehicle>
    <vehicle id="em2mwPKW.21" type="PKW" depart="147.06" departLane="best" departPos="base" departSpeed="max" arrivalPos="-1.00">
        <route edges="em mw"/>
    </vehicle>
    <vehicle id="nm2msPKW.6" type="PKW" depart="148.96" departLane="best" departPos="base" departSpeed="max" arrivalPos="-1.00">
        <route edges="nm ms"/>
    </vehicle>
    <vehicle id="wm2mePKW.27" type="PKW" depart="152.33" departLane="best" departPos="base" departSpeed="max" arrivalPos="-1.00">
        <route edges="wm me"/>
    </vehicle>
    <vehicle id="em2mwPKW.22" type="PKW" depart="154.07" departLane="best" departPos="base" departSpeed="max" arrivalPos="-1.00">
        <route edges="em mw"/>
    </vehicle>
    <vehicle id="wm2meLKW.3" type="LKW" depart="154.28" departLane="best" departPos="base" departSpeed="max" arrivalPos="-1.00">
        <route edges="wm me"/>
    </vehicle>
    <vehicle id="wm2mnPKW.3" type="PKW" depart="156.52" departLane="best" departPos="base" departSpeed="max" arrivalPos="-1.00">
        <route edges="wm mn"/>
    </vehicle>
    <vehicle id="em2msPKW.2" type="PKW" depart="156.52" departLane="best" departPos="base" departSpeed="max" arrivalPos="-1.00">
        <route edges="em ms"/>
    </vehicle>
    <vehicle id="wm2mePKW.28" type="PKW" depart="157.98" departLane="best" departPos="base" departSpeed="max" arrivalPos="-1.00">
        <route edges="wm me"/>
    </vehicle>
    <vehicle id="sm2mwPKW.4" type="PKW" depart="158.24" departLane="best" departPos="base" departSpeed="max" arrivalPos="-1.00">
        <route edges="sm mw"/>
    </vehicle>
    <vehicle id="em2mwPKW.23" type="PKW" depart="161.07" departLane="best" departPos="base" departSpeed="max" arrivalPos="-1.00">
        <route edges="em mw"/>
    </vehicle>
    <vehicle id="wm2mePKW.29" type="PKW" depart="163.62" departLane="best" departPos="base" departSpeed="max" arrivalPos="-1.00">
        <route edges="wm me"/>
    </vehicle>
    <vehicle id="sm2mnPKW.7" type="PKW" depart="166.89" departLane="best" departPos="base" departSpeed="max" arrivalPos="-1.00">
        <route edges="sm mn"/>
    </vehicle>
    <vehicle id="em2mwPKW.24" type="PKW" depart="168.07" departLane="best" departPos="base" departSpeed="max" arrivalPos="-1.00">
        <route edges="em mw"/>
    </vehicle>
    <vehicle id="wm2msPKW.6" type="PKW" depart="168.75" departLane="best" departPos="base" departSpeed="max" arrivalPos="-1.00">
        <route edges="wm ms"/>
    </vehicle>
    <vehicle id="wm2mePKW.30" type="PKW" depart="169.26" departLane="best" departPos="base" departSpeed="max" arrivalPos="-1.00">
        <route edges="wm me"/>
    </vehicle>
    <vehicle id="nm2msPKW.7" type="PKW" depart="173.79" departLane="best" departPos="base" departSpeed="max" arrivalPos="-1.00">
        <route edges="nm ms"/>
    </vehicle>
    <vehicle id="wm2mePKW.31" type="PKW" depart="174.90" departLane="best" departPos="base" departSpeed="max" arrivalPos="-1.00">
        <route edges="wm me"/>
    </vehicle>
    <vehicle id="em2mwPKW.25" type="PKW" depart="175.08" departLane="best" departPos="base" departSpeed="max" arrivalPos="-1.00">
        <route edges="em mw"/>
    </vehicle>
    <vehicle id="wm2mePKW.32" type="PKW" depart="180.54" departLane="best" departPos="base" departSpeed="max" arrivalPos="-1.00">
        <route edges="wm me"/>
    </vehicle>
    <vehicle id="em2mwPKW.26" type="PKW" depart="182.08" departLane="best" departPos="base" departSpeed="max" arrivalPos="-1.00">
        <route edges="em mw"/>
    </vehicle>
    <vehicle id="wm2mePKW.33" type="PKW" depart="186.19" departLane="best" departPos="base" departSpeed="max" arrivalPos="-1.00">
        <route edges="wm me"/>
    </vehicle>
    <vehicle id="em2mwPKW.27" type="PKW" depart="189.08" departLane="best" departPos="base" departSpeed="max" arrivalPos="-1.00">
        <route edges="em mw"/>
    </vehicle>
    <vehicle id="em2mwLKW.3" type="LKW" depart="189.47" departLane="best" departPos="base" departSpeed="max" arrivalPos="-1.00">
        <route edges="em mw"/>
    </vehicle>
    <vehicle id="nm2mwPKW.3" type="PKW" depart="189.47" departLane="best" departPos="base" departSpeed="max" arrivalPos="-1.00">
        <route edges="nm mw"/>
    </vehicle>
    <vehicle id="sm2mnPKW.8" type="PKW" depart="190.73" departLane="best" departPos="base" departSpeed="max" arrivalPos="-1.00">
        <route edges="sm mn"/>
    </vehicle>
    <vehicle id="wm2mePKW.34" type="PKW" depart="191.83" departLane="best" departPos="base" departSpeed="max" arrivalPos="-1.00">
        <route edges="wm me"/>
    </vehicle>
    <vehicle id="em2mwPKW.28" type="PKW" depart="196.08" departLane="best" departPos="base" departSpeed="max" arrivalPos="-1.00">
        <route edges="em mw"/>
    </vehicle>
    <vehicle id="wm2msPKW.7" type="PKW" depart="196.88" departLane="best" departPos="base" departSpeed="max" arrivalPos="-1.00">
        <route edges="wm ms"/>
    </vehicle>
    <vehicle id="wm2mePKW.35" type="PKW" depart="197.47" departLane="best" departPos="base" departSpeed="max" arrivalPos="-1.00">
        <route edges="wm me"/>
    </vehicle>
    <vehicle id="sm2mwPKW.5" type="PKW" depart="197.80" departLane="best" departPos="base" departSpeed="max" arrivalPos="-1.00">
        <route edges="sm mw"/>
    </vehicle>
    <vehicle id="nm2msPKW.8" type="PKW" depart="198.62" departLane="best" departPos="base" departSpeed="max" arrivalPos="-1.00">
        <route edges="nm ms"/>
    </vehicle>
    <vehicle id="nm2mePKW.3" type="PKW" depart="200.00" departLane="best" departPos="base" departSpeed="max" arrivalPos="-1.00">
        <route edges="nm me"/>
    </vehicle>
    <vehicle id="em2mwPKW.29" type="PKW" depart="203.09" departLane="best" departPos="base" departSpeed="max" arrivalPos="-1.00">
        <route edges="em mw"/>
    </vehicle>
    <vehicle id="wm2mePKW.36" type="PKW" depart="203.11" departLane="best" departPos="base" departSpeed="max" arrivalPos="-1.00">
        <route edges="wm me"/>
    </vehicle>
    <vehicle id="wm2meLKW.4" type="LKW" depart="205.71" departLane="best" departPos="base" departSpeed="max" arrivalPos="-1.00">
        <route edges="wm me"/>
    </vehicle>
    <vehicle id="em2mnPKW.3" type="PKW" depart="207.69" departLane="best" departPos="base" departSpeed="max" arrivalPos="-1.00">
        <route edges="em mn"/>
    </vehicle>
    <vehicle id="wm2mnPKW.4" type="PKW" depart="208.69" departLane="best" departPos="base" departSpeed="max" arrivalPos="-1.00">
        <route edges="wm mn"/>
    </vehicle>
    <vehicle id="wm2mePKW.37" type="PKW" depart="208.75" departLane="best" departPos="base" departSpeed="max" arrivalPos="-1.00">
        <route edges="wm me"/>
    </vehicle>
    <vehicle id="em2mwPKW.30" type="PKW" depart="210.09" departLane="best" departPos="base" departSpeed="max" arrivalPos="-1.00">
        <route edges="em mw"/>
    </vehicle>
    <vehicle id="wm2mePKW.38" type="PKW" depart="214.40" departLane="best" departPos="base" departSpeed="max" arrivalPos="-1.00">
        <route edges="wm me"/>
    </vehicle>
    <vehicle id="sm2mnPKW.9" type="PKW" depart="214.57" departLane="best" departPos="base" departSpeed="max" arrivalPos="-1.00">
        <route edges="sm mn"/>
    </vehicle>
    <vehicle id="em2mwPKW.31" type="PKW" depart="217.09" departLane="best" departPos="base" departSpeed="max" arrivalPos="-1.00">
        <route edges="em mw"/>
    </vehicle>
    <vehicle id="wm2mePKW.39" type="PKW" depart="220.04" departLane="best" departPos="base" departSpeed="max" arrivalPos="-1.00">
        <route edges="wm me"/>
    </vehicle>
    <vehicle id="sm2mePKW.3" type="PKW" depart="220.41" departLane="best" departPos="base" departSpeed="max" arrivalPos="-1.00">
        <route edges="sm me"/>
    </vehicle>
    <vehicle id="nm2msPKW.9" type="PKW" depart="223.44" departLane="best" departPos="base" departSpeed="max" arrivalPos="-1.00">
        <route edges="nm ms"/>
    </vehicle>
    <vehicle id="em2mwPKW.32" type="PKW" depart="224.10" departLane="best" departPos="base" departSpeed="max" arrivalPos="-1.00">
        <route edges="em mw"/>
    </vehicle>
    <vehicle id="wm2msPKW.8" type="PKW" depart="225.00" departLane="best" departPos="base" departSpeed="max" arrivalPos="-1.00">
        <route edges="wm ms"/>
    </vehicle>
    <vehicle id="wm2mePKW.40" type="PKW" depart="225.68" departLane="best" departPos="base" departSpeed="max" arrivalPos="-1.00">
        <route edges="wm me"/>
    </vehicle>
    <vehicle id="em2mwPKW.33" type="PKW" depart="231.10" departLane="best" departPos="base" departSpeed="max" arrivalPos="-1.00">
        <route edges="em mw"/>
    </vehicle>
    <vehicle id="wm2mePKW.41" type="PKW" depart="231.32" departLane="best" departPos="base" departSpeed="max" arrivalPos="-1.00">
        <route edges="wm me"/>
    </vehicle>
    <vehicle id="em2msPKW.3" type="PKW" depart="234.78" departLane="best" departPos="base" departSpeed="max" arrivalPos="-1.00">
        <route edges="em ms"/>
    </vehicle>
    <vehicle id="wm2mePKW.42" type="PKW" depart="236.96" departLane="best" departPos="base" departSpeed="max" arrivalPos="-1.00">
        <route edges="wm me"/>
    </vehicle>
    <vehicle id="sm2mwPKW.6" type="PKW" depart="237.36" departLane="best" departPos="base" departSpeed="max" arrivalPos="-1.00">
        <route edges="sm mw"/>
    </vehicle>
    <vehicle id="em2mwPKW.34" type="PKW" depart="238.10" departLane="best" departPos="base" departSpeed="max" arrivalPos="-1.00">
        <route edges="em mw"/>
    </vehicle>
    <vehicle id="sm2mnPKW.10" type="PKW" depart="238.41" departLane="best" departPos="base" departSpeed="max" arrivalPos="-1.00">
        <route edges="sm mn"/>
    </vehicle>
    <vehicle id="wm2mePKW.43" type="PKW" depart="242.61" departLane="best" departPos="base" departSpeed="max" arrivalPos="-1.00">
        <route edges="wm me"/>
    </vehicle>
    <vehicle id="em2mwPKW.35" type="PKW" depart="245.11" departLane="best" departPos="base" departSpeed="max" arrivalPos="-1.00">
        <route edges="em mw"/>
    </vehicle>
    <vehicle id="wm2mePKW.44" type="PKW" depart="248.25" departLane="best" departPos="base" departSpeed="max" arrivalPos="-1.00">
        <route edges="wm me"/>
    </vehicle>
    <vehicle id="nm2msPKW.10" type="PKW" depart="248.27" departLane="best" departPos="base" departSpeed="max" arrivalPos="-1.00">
        <route edges="nm ms"/>
    </vehicle>
    <vehicle id="em2mwPKW.36" type="PKW" depart="252.11" departLane="best" departPos="base" departSpeed="max" arrivalPos="-1.00">
        <route edges="em mw"/>
    </vehicle>
    <vehicle id="em2mwLKW.4" type="LKW" depart="252.63" departLane="best" departPos="base" departSpeed="max" arrivalPos="-1.00">
        <route edges="em mw"/>
    </vehicle>
    <vehicle id="nm2mwPKW.4" type="PKW" depart="252.63" departLane="best" departPos="base" departSpeed="max" arrivalPos="-1.00">
        <route edges="nm mw"/>
    </vehicle>
    <vehicle id="wm2msPKW.9" type="PKW" depart="253.13" departLane="best" departPos="base" departSpeed="max" arrivalPos="-1.00">
        <route edges="wm ms"/>
    </vehicle>
    <vehicle id="wm2mePKW.45" type="PKW" depart="253.89" departLane="best" departPos="base" departSpeed="max" arrivalPos="-1.00">
        <route edges="wm me"/>
    </vehicle>