<?xml version="1.0"?>

<!-- generated on 04/15/13 09:42:36 by SUMO duarouter Version dev-SVN-r12754
<?xml version="1.0" encoding="UTF-8"?>

<configuration xmlns:xsi="http://www.w3.org/2001/XMLSchema-instance" xsi:noNamespaceSchemaLocation="https://sumo.sf.net/xsd/duarouterConfiguration.xsd">

    <input>
        <net-file value="net.net.xml"/>
        <flow-files value="input_flows.flows.xml"/>
    </input>

    <output>
        <output-file value="routes.rou.xml"/>
        <vtype-output value=""/>
    </output>

    <report>
        <verbose value="true"/>
    </report>

</configuration>
-->

<routes xmlns:xsi="http://www.w3.org/2001/XMLSchema-instance" xsi:noNamespaceSchemaLocation="https://sumo.sf.net/xsd/routes_file.xsd">
    <vehicle id="em2mnLKW_0" type="LKW" depart="0.00" departLane="best" departPos="base" departSpeed="max" arrivalPos="-1.00">
        <route edges="em mn"/>
    </vehicle>
    <vehicle id="em2mnPKW_0" type="PKW" depart="0.00" departLane="best" departPos="base" departSpeed="max" arrivalPos="-1.00">
        <route edges="em mn"/>
    </vehicle>
    <vehicle id="em2msLKW_0" type="LKW" depart="0.00" departLane="best" departPos="base" departSpeed="max" arrivalPos="-1.00">
        <route edges="em ms"/>
    </vehicle>
    <vehicle id="em2msPKW_0" type="PKW" depart="0.00" departLane="best" departPos="base" departSpeed="max" arrivalPos="-1.00">
        <route edges="em ms"/>
    </vehicle>
    <vehicle id="em2mwLKW_0" type="LKW" depart="0.00" departLane="best" departPos="base" departSpeed="max" arrivalPos="-1.00">
        <route edges="em mw"/>
    </vehicle>
    <vehicle id="em2mwPKW_0" type="PKW" depart="0.00" departLane="best" departPos="base" departSpeed="max" arrivalPos="-1.00">
        <route edges="em mw"/>
    </vehicle>
    <vehicle id="nm2meLKW_0" type="LKW" depart="0.00" departLane="best" departPos="base" departSpeed="max" arrivalPos="-1.00">
        <route edges="nm me"/>
    </vehicle>
    <vehicle id="nm2mePKW_0" type="PKW" depart="0.00" departLane="best" departPos="base" departSpeed="max" arrivalPos="-1.00">
        <route edges="nm me"/>
    </vehicle>
    <vehicle id="nm2msLKW_0" type="LKW" depart="0.00" departLane="best" departPos="base" departSpeed="max" arrivalPos="-1.00">
        <route edges="nm ms"/>
    </vehicle>
    <vehicle id="nm2msPKW_0" type="PKW" depart="0.00" departLane="best" departPos="base" departSpeed="max" arrivalPos="-1.00">
        <route edges="nm ms"/>
    </vehicle>
    <vehicle id="nm2mwLKW_0" type="LKW" depart="0.00" departLane="best" departPos="base" departSpeed="max" arrivalPos="-1.00">
        <route edges="nm mw"/>
    </vehicle>
    <vehicle id="nm2mwPKW_0" type="PKW" depart="0.00" departLane="best" departPos="base" departSpeed="max" arrivalPos="-1.00">
        <route edges="nm mw"/>
    </vehicle>
    <vehicle id="sm2mePKW_0" type="PKW" depart="0.00" departLane="best" departPos="base" departSpeed="max" arrivalPos="-1.00">
        <route edges="sm me"/>
    </vehicle>
    <vehicle id="sm2mnLKW_0" type="LKW" depart="0.00" departLane="best" departPos="base" departSpeed="max" arrivalPos="-1.00">
        <route edges="sm mn"/>
    </vehicle>
    <vehicle id="sm2mnPKW_0" type="PKW" depart="0.00" departLane="best" departPos="base" departSpeed="max" arrivalPos="-1.00">
        <route edges="sm mn"/>
    </vehicle>
    <vehicle id="sm2mwLKW_0" type="LKW" depart="0.00" departLane="best" departPos="base" departSpeed="max" arrivalPos="-1.00">
        <route edges="sm mw"/>
    </vehicle>
    <vehicle id="sm2mwPKW_0" type="PKW" depart="0.00" departLane="best" departPos="base" departSpeed="max" arrivalPos="-1.00">
        <route edges="sm mw"/>
    </vehicle>
    <vehicle id="wm2meLKW_0" type="LKW" depart="0.00" departLane="best" departPos="base" departSpeed="max" arrivalPos="-1.00">
        <route edges="wm me"/>
    </vehicle>
    <vehicle id="wm2mePKW_0" type="PKW" depart="0.00" departLane="best" departPos="base" departSpeed="max" arrivalPos="-1.00">
        <route edges="wm me"/>
    </vehicle>
    <vehicle id="wm2mnLKW_0" type="LKW" depart="0.00" departLane="best" departPos="base" departSpeed="max" arrivalPos="-1.00">
        <route edges="wm mn"/>
    </vehicle>
    <vehicle id="wm2mnPKW_0" type="PKW" depart="0.00" departLane="best" departPos="base" departSpeed="max" arrivalPos="-1.00">
        <route edges="wm mn"/>
    </vehicle>
    <vehicle id="wm2msLKW_0" type="LKW" depart="0.00" departLane="best" departPos="base" departSpeed="max" arrivalPos="-1.00">
        <route edges="wm ms"/>
    </vehicle>
    <vehicle id="wm2msPKW_0" type="PKW" depart="0.00" departLane="best" departPos="base" departSpeed="max" arrivalPos="-1.00">
        <route edges="wm ms"/>
    </vehicle>
    <vehicle id="wm2mePKW_1" type="PKW" depart="6.00" departLane="best" departPos="base" departSpeed="max" arrivalPos="-1.00">
        <route edges="wm me"/>
    </vehicle>
    <vehicle id="em2mwPKW_1" type="PKW" depart="7.00" departLane="best" departPos="base" departSpeed="max" arrivalPos="-1.00">
        <route edges="em mw"/>
    </vehicle>
    <vehicle id="wm2mePKW_2" type="PKW" depart="11.00" departLane="best" departPos="base" departSpeed="max" arrivalPos="-1.00">
        <route edges="wm me"/>
    </vehicle>
    <vehicle id="em2mwPKW_2" type="PKW" depart="14.00" departLane="best" departPos="base" departSpeed="max" arrivalPos="-1.00">
        <route edges="em mw"/>
    </vehicle>
    <vehicle id="wm2mePKW_3" type="PKW" depart="17.00" departLane="best" departPos="base" departSpeed="max" arrivalPos="-1.00">
        <route edges="wm me"/>
    </vehicle>
    <vehicle id="em2mwPKW_3" type="PKW" depart="21.00" departLane="best" departPos="base" departSpeed="max" arrivalPos="-1.00">
        <route edges="em mw"/>
    </vehicle>
    <vehicle id="wm2mePKW_4" type="PKW" depart="23.00" departLane="best" departPos="base" departSpeed="max" arrivalPos="-1.00">
        <route edges="wm me"/>
    </vehicle>
    <vehicle id="sm2mnPKW_1" type="PKW" depart="24.00" departLane="best" departPos="base" departSpeed="max" arrivalPos="-1.00">
        <route edges="sm mn"/>
    </vehicle>
    <vehicle id="nm2msPKW_1" type="PKW" depart="25.00" departLane="best" departPos="base" departSpeed="max" arrivalPos="-1.00">
        <route edges="nm ms"/>
    </vehicle>
    <vehicle id="em2mwPKW_4" type="PKW" depart="28.00" departLane="best" departPos="base" departSpeed="max" arrivalPos="-1.00">
        <route edges="em mw"/>
    </vehicle>
    <vehicle id="wm2mePKW_5" type="PKW" depart="28.00" departLane="best" departPos="base" departSpeed="max" arrivalPos="-1.00">
        <route edges="wm me"/>
    </vehicle>
    <vehicle id="wm2msPKW_1" type="PKW" depart="28.00" departLane="best" departPos="base" departSpeed="max" arrivalPos="-1.00">
        <route edges="wm ms"/>
    </vehicle>
    <vehicle id="wm2mePKW_6" type="PKW" depart="34.00" departLane="best" departPos="base" departSpeed="max" arrivalPos="-1.00">
        <route edges="wm me"/>
    </vehicle>
    <vehicle id="em2mwPKW_5" type="PKW" depart="35.00" departLane="best" departPos="base" departSpeed="max" arrivalPos="-1.00">
        <route edges="em mw"/>
    </vehicle>
    <vehicle id="wm2mePKW_7" type="PKW" depart="39.00" departLane="best" departPos="base" departSpeed="max" arrivalPos="-1.00">
        <route edges="wm me"/>
    </vehicle>
    <vehicle id="sm2mwPKW_1" type="PKW" depart="40.00" departLane="best" departPos="base" departSpeed="max" arrivalPos="-1.00">
        <route edges="sm mw"/>
    </vehicle>
    <vehicle id="em2mwPKW_6" type="PKW" depart="42.00" departLane="best" departPos="base" departSpeed="max" arrivalPos="-1.00">
        <route edges="em mw"/>
    </vehicle>
    <vehicle id="wm2mePKW_8" type="PKW" depart="45.00" departLane="best" departPos="base" departSpeed="max" arrivalPos="-1.00">
        <route edges="wm me"/>
    </vehicle>
    <vehicle id="sm2mnPKW_2" type="PKW" depart="48.00" departLane="best" departPos="base" departSpeed="max" arrivalPos="-1.00">
        <route edges="sm mn"/>
    </vehicle>
    <vehicle id="em2mwPKW_7" type="PKW" depart="49.00" departLane="best" departPos="base" departSpeed="max" arrivalPos="-1.00">
        <route edges="em mw"/>
    </vehicle>
    <vehicle id="nm2msPKW_2" type="PKW" depart="50.00" departLane="best" departPos="base" departSpeed="max" arrivalPos="-1.00">
        <route edges="nm ms"/>
    </vehicle>
    <vehicle id="wm2meLKW_1" type="LKW" depart="51.00" departLane="best" departPos="base" departSpeed="max" arrivalPos="-1.00">
        <route edges="wm me"/>
    </vehicle>
    <vehicle id="wm2mePKW_9" type="PKW" depart="51.00" departLane="best" departPos="base" departSpeed="max" arrivalPos="-1.00">
        <route edges="wm me"/>
    </vehicle>
    <vehicle id="wm2mnPKW_1" type="PKW" depart="52.00" departLane="best" departPos="base" departSpeed="max" arrivalPos="-1.00">
        <route edges="wm mn"/>
    </vehicle>
    <vehicle id="em2mwPKW_8" type="PKW" depart="56.00" departLane="best" departPos="base" departSpeed="max" arrivalPos="-1.00">
        <route edges="em mw"/>
    </vehicle>
    <vehicle id="wm2mePKW_10" type="PKW" depart="56.00" departLane="best" departPos="base" departSpeed="max" arrivalPos="-1.00">
        <route edges="wm me"/>
    </vehicle>
    <vehicle id="wm2msPKW_2" type="PKW" depart="56.00" departLane="best" departPos="base" departSpeed="max" arrivalPos="-1.00">
        <route edges="wm ms"/>
    </vehicle>
    <vehicle id="wm2mePKW_11" type="PKW" depart="62.00" departLane="best" departPos="base" departSpeed="max" arrivalPos="-1.00">
        <route edges="wm me"/>
    </vehicle>
    <vehicle id="em2mwLKW_1" type="LKW" depart="63.00" departLane="best" departPos="base" departSpeed="max" arrivalPos="-1.00">
        <route edges="em mw"/>
    </vehicle>
    <vehicle id="em2mwPKW_9" type="PKW" depart="63.00" departLane="best" departPos="base" departSpeed="max" arrivalPos="-1.00">
        <route edges="em mw"/>
    </vehicle>
    <vehicle id="nm2mwPKW_1" type="PKW" depart="63.00" departLane="best" departPos="base" departSpeed="max" arrivalPos="-1.00">
        <route edges="nm mw"/>
    </vehicle>
    <vehicle id="nm2mePKW_1" type="PKW" depart="67.00" departLane="best" departPos="base" departSpeed="max" arrivalPos="-1.00">
        <route edges="nm me"/>
    </vehicle>
    <vehicle id="wm2mePKW_12" type="PKW" depart="68.00" departLane="best" departPos="base" departSpeed="max" arrivalPos="-1.00">
        <route edges="wm me"/>
    </vehicle>
    <vehicle id="em2mnPKW_1" type="PKW" depart="69.00" departLane="best" departPos="base" departSpeed="max" arrivalPos="-1.00">
        <route edges="em mn"/>
    </vehicle>
    <vehicle id="em2mwPKW_10" type="PKW" depart="70.00" departLane="best" departPos="base" departSpeed="max" arrivalPos="-1.00">
        <route edges="em mw"/>
    </vehicle>
    <vehicle id="sm2mnPKW_3" type="PKW" depart="72.00" departLane="best" departPos="base" departSpeed="max" arrivalPos="-1.00">
        <route edges="sm mn"/>
    </vehicle>
    <vehicle id="sm2mePKW_1" type="PKW" depart="73.00" departLane="best" departPos="base" departSpeed="max" arrivalPos="-1.00">
        <route edges="sm me"/>
    </vehicle>
    <vehicle id="wm2mePKW_13" type="PKW" depart="73.00" departLane="best" departPos="base" departSpeed="max" arrivalPos="-1.00">
        <route edges="wm me"/>
    </vehicle>
    <vehicle id="nm2msPKW_3" type="PKW" depart="74.00" departLane="best" departPos="base" departSpeed="max" arrivalPos="-1.00">
        <route edges="nm ms"/>
    </vehicle>
    <vehicle id="em2mwPKW_11" type="PKW" depart="77.00" departLane="best" departPos="base" departSpeed="max" arrivalPos="-1.00">
        <route edges="em mw"/>
    </vehicle>
    <vehicle id="em2msPKW_1" type="PKW" depart="78.00" departLane="best" departPos="base" departSpeed="max" arrivalPos="-1.00">
        <route edges="em ms"/>
    </vehicle>
    <vehicle id="sm2mwPKW_2" type="PKW" depart="79.00" departLane="best" departPos="base" departSpeed="max" arrivalPos="-1.00">
        <route edges="sm mw"/>
    </vehicle>
    <vehicle id="wm2mePKW_14" type="PKW" depart="79.00" departLane="best" departPos="base" departSpeed="max" arrivalPos="-1.00">
        <route edges="wm me"/>
    </vehicle>
    <vehicle id="em2mwPKW_12" type="PKW" depart="84.00" departLane="best" departPos="base" departSpeed="max" arrivalPos="-1.00">
        <route edges="em mw"/>
    </vehicle>
    <vehicle id="wm2msPKW_3" type="PKW" depart="84.00" departLane="best" departPos="base" departSpeed="max" arrivalPos="-1.00">
        <route edges="wm ms"/>
    </vehicle>
    <vehicle id="wm2mePKW_15" type="PKW" depart="85.00" departLane="best" departPos="base" departSpeed="max" arrivalPos="-1.00">
        <route edges="wm me"/>
    </vehicle>
    <vehicle id="wm2mePKW_16" type="PKW" depart="90.00" departLane="best" departPos="base" departSpeed="max" arrivalPos="-1.00">
        <route edges="wm me"/>
    </vehicle>
    <vehicle id="em2mwPKW_13" type="PKW" depart="91.00" departLane="best" departPos="base" departSpeed="max" arrivalPos="-1.00">
        <route edges="em mw"/>
    </vehicle>
    <vehicle id="sm2mnPKW_4" type="PKW" depart="95.00" departLane="best" departPos="base" departSpeed="max" arrivalPos="-1.00">
        <route edges="sm mn"/>
    </vehicle>
    <vehicle id="wm2mePKW_17" type="PKW" depart="96.00" departLane="best" departPos="base" departSpeed="max" arrivalPos="-1.00">
        <route edges="wm me"/>
    </vehicle>
    <vehicle id="em2mwPKW_14" type="PKW" depart="98.00" departLane="best" departPos="base" departSpeed="max" arrivalPos="-1.00">
        <route edges="em mw"/>
    </vehicle>
    <vehicle id="nm2msPKW_4" type="PKW" depart="99.00" departLane="best" departPos="base" departSpeed="max" arrivalPos="-1.00">
        <route edges="nm ms"/>
    </vehicle>
    <vehicle id="wm2mePKW_18" type="PKW" depart="102.00" departLane="best" departPos="base" departSpeed="max" arrivalPos="-1.00">
        <route edges="wm me"/>
    </vehicle>
    <vehicle id="wm2meLKW_2" type="LKW" depart="103.00" departLane="best" departPos="base" departSpeed="max" arrivalPos="-1.00">
        <route edges="wm me"/>
    </vehicle>
    <vehicle id="wm2mnPKW_2" type="PKW" depart="104.00" departLane="best" departPos="base" departSpeed="max" arrivalPos="-1.00">
        <route edges="wm mn"/>
    </vehicle>
    <vehicle id="em2mwPKW_15" type="PKW" depart="105.00" departLane="best" departPos="base" departSpeed="max" arrivalPos="-1.00">
        <route edges="em mw"/>
    </vehicle>
    <vehicle id="wm2mePKW_19" type="PKW" depart="107.00" departLane="best" departPos="base" departSpeed="max" arrivalPos="-1.00">
        <route edges="wm me"/>
    </vehicle>
    <vehicle id="em2mwPKW_16" type="PKW" depart="112.00" departLane="best" departPos="base" departSpeed="max" arrivalPos="-1.00">
        <route edges="em mw"/>
    </vehicle>
    <vehicle id="wm2mePKW_20" type="PKW" depart="113.00" departLane="best" departPos="base" departSpeed="max" arrivalPos="-1.00">
        <route edges="wm me"/>
    </vehicle>
    <vehicle id="wm2msPKW_4" type="PKW" depart="113.00" departLane="best" departPos="base" departSpeed="max" arrivalPos="-1.00">
        <route edges="wm ms"/>
    </vehicle>
    <vehicle id="wm2mePKW_21" type="PKW" depart="118.00" departLane="best" departPos="base" departSpeed="max" arrivalPos="-1.00">
        <route edges="wm me"/>
    </vehicle>
    <vehicle id="em2mwPKW_17" type="PKW" depart="119.00" departLane="best" departPos="base" departSpeed="max" arrivalPos="-1.00">
        <route edges="em mw"/>
    </vehicle>
    <vehicle id="sm2mnPKW_5" type="PKW" depart="119.00" departLane="best" departPos="base" departSpeed="max" arrivalPos="-1.00">
        <route edges="sm mn"/>
    </vehicle>
    <vehicle id="sm2mwPKW_3" type="PKW" depart="119.00" departLane="best" departPos="base" departSpeed="max" arrivalPos="-1.00">
        <route edges="sm mw"/>
    </vehicle>
    <vehicle id="nm2msPKW_5" type="PKW" depart="124.00" departLane="best" departPos="base" departSpeed="max" arrivalPos="-1.00">
        <route edges="nm ms"/>
    </vehicle>
    <vehicle id="wm2mePKW_22" type="PKW" depart="124.00" departLane="best" departPos="base" departSpeed="max" arrivalPos="-1.00">
        <route edges="wm me"/>
    </vehicle>
    <vehicle id="em2mwLKW_2" type="LKW" depart="126.00" departLane="best" departPos="base" departSpeed="max" arrivalPos="-1.00">
        <route edges="em mw"/>
    </vehicle>
    <vehicle id="em2mwPKW_18" type="PKW" depart="126.00" departLane="best" departPos="base" departSpeed="max" arrivalPos="-1.00">
        <route edges="em mw"/>
    </vehicle>
    <vehicle id="nm2mwPKW_2" type="PKW" depart="126.00" departLane="best" departPos="base" departSpeed="max" arrivalPos="-1.00">
        <route edges="nm mw"/>
    </vehicle>
    <vehicle id="wm2mePKW_23" type="PKW" depart="130.00" departLane="best" departPos="base" departSpeed="max" arrivalPos="-1.00">
        <route edges="wm me"/>
    </vehicle>
    <vehicle id="em2mwPKW_19" type="PKW" depart="133.00" departLane="best" departPos="base" departSpeed="max" arrivalPos="-1.00">
        <route edges="em mw"/>
    </vehicle>
    <vehicle id="nm2mePKW_2" type="PKW" depart="133.00" departLane="best" departPos="base" departSpeed="max" arrivalPos="-1.00">
        <route edges="nm me"/>
    </vehicle>
    <vehicle id="wm2mePKW_24" type="PKW" depart="135.00" departLane="best" departPos="base" departSpeed="max" arrivalPos="-1.00">
        <route edges="wm me"/>
    </vehicle>
    <vehicle id="em2mnPKW_2" type="PKW" depart="138.00" departLane="best" departPos="base" departSpeed="max" arrivalPos="-1.00">
        <route edges="em mn"/>
    </vehicle>
    <vehicle id="em2mwPKW_20" type="PKW" depart="140.00" departLane="best" departPos="base" departSpeed="max" arrivalPos="-1.00">
        <route edges="em mw"/>
    </vehicle>
    <vehicle id="wm2mePKW_25" type="PKW" depart="141.00" departLane="best" departPos="base" departSpeed="max" arrivalPos="-1.00">
        <route edges="wm me"/>
    </vehicle>
    <vehicle id="wm2msPKW_5" type="PKW" depart="141.00" departLane="best" departPos="base" departSpeed="max" arrivalPos="-1.00">
        <route edges="wm ms"/>
    </vehicle>
    <vehicle id="sm2mnPKW_6" type="PKW" depart="143.00" departLane="best" departPos="base" departSpeed="max" arrivalPos="-1.00">
        <route edges="sm mn"/>
    </vehicle>
    <vehicle id="em2mwPKW_21" type="PKW" depart="147.00" departLane="best" departPos="base" departSpeed="max" arrivalPos="-1.00">
        <route edges="em mw"/>
    </vehicle>
    <vehicle id="sm2mePKW_2" type="PKW" depart="147.00" departLane="best" departPos="base" departSpeed="max" arrivalPos="-1.00">
        <route edges="sm me"/>
    </vehicle>
    <vehicle id="wm2mePKW_26" type="PKW" depart="147.00" departLane="best" departPos="base" departSpeed="max" arrivalPos="-1.00">
        <route edges="wm me"/>
    </vehicle>
    <vehicle id="nm2msPKW_6" type="PKW" depart="149.00" departLane="best" departPos="base" departSpeed="max" arrivalPos="-1.00">
        <route edges="nm ms"/>
    </vehicle>
    <vehicle id="wm2mePKW_27" type="PKW" depart="152.00" departLane="best" departPos="base" departSpeed="max" arrivalPos="-1.00">
        <route edges="wm me"/>
    </vehicle>
    <vehicle id="em2mwPKW_22" type="PKW" depart="154.00" departLane="best" departPos="base" departSpeed="max" arrivalPos="-1.00">
        <route edges="em mw"/>
    </vehicle>
    <vehicle id="wm2meLKW_3" type="LKW" depart="154.00" departLane="best" departPos="base" departSpeed="max" arrivalPos="-1.00">
        <route edges="wm me"/>
    </vehicle>
    <vehicle id="em2msPKW_2" type="PKW" depart="157.00" departLane="best" departPos="base" departSpeed="max" arrivalPos="-1.00">
        <route edges="em ms"/>
    </vehicle>
    <vehicle id="wm2mnPKW_3" type="PKW" depart="157.00" departLane="best" departPos="base" departSpeed="max" arrivalPos="-1.00">
        <route edges="wm mn"/>
    </vehicle>
    <vehicle id="sm2mwPKW_4" type="PKW" depart="158.00" departLane="best" departPos="base" departSpeed="max" arrivalPos="-1.00">
        <route edges="sm mw"/>
    </vehicle>
    <vehicle id="wm2mePKW_28" type="PKW" depart="158.00" departLane="best" departPos="base" departSpeed="max" arrivalPos="-1.00">
        <route edges="wm me"/>
    </vehicle>
    <vehicle id="em2mwPKW_23" type="PKW" depart="161.00" departLane="best" departPos="base" departSpeed="max" arrivalPos="-1.00">
        <route edges="em mw"/>
    </vehicle>
    <vehicle id="wm2mePKW_29" type="PKW" depart="164.00" departLane="best" departPos="base" departSpeed="max" arrivalPos="-1.00">
        <route edges="wm me"/>
    </vehicle>
    <vehicle id="sm2mnPKW_7" type="PKW" depart="167.00" departLane="best" departPos="base" departSpeed="max" arrivalPos="-1.00">
        <route edges="sm mn"/>
    </vehicle>
    <vehicle id="em2mwPKW_24" type="PKW" depart="168.00" departLane="best" departPos="base" departSpeed="max" arrivalPos="-1.00">
        <route edges="em mw"/>
    </vehicle>
    <vehicle id="wm2mePKW_30" type="PKW" depart="169.00" departLane="best" departPos="base" departSpeed="max" arrivalPos="-1.00">
        <route edges="wm me"/>
    </vehicle>
    <vehicle id="wm2msPKW_6" type="PKW" depart="169.00" departLane="best" departPos="base" departSpeed="max" arrivalPos="-1.00">
        <route edges="wm ms"/>
    </vehicle>
    <vehicle id="nm2msPKW_7" type="PKW" depart="174.00" departLane="best" departPos="base" departSpeed="max" arrivalPos="-1.00">
        <route edges="nm ms"/>
    </vehicle>
    <vehicle id="em2mwPKW_25" type="PKW" depart="175.00" departLane="best" departPos="base" departSpeed="max" arrivalPos="-1.00">
        <route edges="em mw"/>
    </vehicle>
    <vehicle id="wm2mePKW_31" type="PKW" depart="175.00" departLane="best" departPos="base" departSpeed="max" arrivalPos="-1.00">
        <route edges="wm me"/>
    </vehicle>
    <vehicle id="wm2mePKW_32" type="PKW" depart="181.00" departLane="best" departPos="base" departSpeed="max" arrivalPos="-1.00">
        <route edges="wm me"/>
    </vehicle>
    <vehicle id="em2mwPKW_26" type="PKW" depart="182.00" departLane="best" departPos="base" departSpeed="max" arrivalPos="-1.00">
        <route edges="em mw"/>
    </vehicle>
    <vehicle id="wm2mePKW_33" type="PKW" depart="186.00" departLane="best" departPos="base" departSpeed="max" arrivalPos="-1.00">
        <route edges="wm me"/>
    </vehicle>
    <vehicle id="em2mwLKW_3" type="LKW" depart="189.00" departLane="best" departPos="base" departSpeed="max" arrivalPos="-1.00">
        <route edges="em mw"/>
    </vehicle>
    <vehicle id="em2mwPKW_27" type="PKW" depart="189.00" departLane="best" departPos="base" departSpeed="max" arrivalPos="-1.00">
        <route edges="em mw"/>
    </vehicle>
    <vehicle id="nm2mwPKW_3" type="PKW" depart="189.00" departLane="best" departPos="base" departSpeed="max" arrivalPos="-1.00">
        <route edges="nm mw"/>
    </vehicle>
    <vehicle id="sm2mnPKW_8" type="PKW" depart="191.00" departLane="best" departPos="base" departSpeed="max" arrivalPos="-1.00">
        <route edges="sm mn"/>
    </vehicle>
    <vehicle id="wm2mePKW_34" type="PKW" depart="192.00" departLane="best" departPos="base" departSpeed="max" arrivalPos="-1.00">
        <route edges="wm me"/>
    </vehicle>
    <vehicle id="em2mwPKW_28" type="PKW" depart="196.00" departLane="best" departPos="base" departSpeed="max" arrivalPos="-1.00">
        <route edges="em mw"/>
    </vehicle>
    <vehicle id="wm2mePKW_35" type="PKW" depart="197.00" departLane="best" departPos="base" departSpeed="max" arrivalPos="-1.00">
        <route edges="wm me"/>
    </vehicle>
    <vehicle id="wm2msPKW_7" type="PKW" depart="197.00" departLane="best" departPos="base" departSpeed="max" arrivalPos="-1.00">
        <route edges="wm ms"/>
    </vehicle>
    <vehicle id="sm2mwPKW_5" type="PKW" depart="198.00" departLane="best" departPos="base" departSpeed="max" arrivalPos="-1.00">
        <route edges="sm mw"/>
    </vehicle>
    <vehicle id="nm2msPKW_8" type="PKW" depart="199.00" departLane="best" departPos="base" departSpeed="max" arrivalPos="-1.00">
        <route edges="nm ms"/>
    </vehicle>
    <vehicle id="nm2mePKW_3" type="PKW" depart="200.00" departLane="best" departPos="base" departSpeed="max" arrivalPos="-1.00">
        <route edges="nm me"/>
    </vehicle>
    <vehicle id="em2mwPKW_29" type="PKW" depart="203.00" departLane="best" departPos="base" departSpeed="max" arrivalPos="-1.00">
        <route edges="em mw"/>
    </vehicle>
    <vehicle id="wm2mePKW_36" type="PKW" depart="203.00" departLane="best" departPos="base" departSpeed="max" arrivalPos="-1.00">
        <route edges="wm me"/>
    </vehicle>
    <vehicle id="wm2meLKW_4" type="LKW" depart="206.00" departLane="best" departPos="base" departSpeed="max" arrivalPos="-1.00">
        <route edges="wm me"/>
    </vehicle>
    <vehicle id="em2mnPKW_3" type="PKW" depart="208.00" departLane="best" departPos="base" departSpeed="max" arrivalPos="-1.00">
        <route edges="em mn"/>
    </vehicle>
    <vehicle id="wm2mePKW_37" type="PKW" depart="209.00" departLane="best" departPos="base" departSpeed="max" arrivalPos="-1.00">
        <route edges="wm me"/>
    </vehicle>
    <vehicle id="wm2mnPKW_4" type="PKW" depart="209.00" departLane="best" departPos="base" departSpeed="max" arrivalPos="-1.00">
        <route edges="wm mn"/>
    </vehicle>
    <vehicle id="em2mwPKW_30" type="PKW" depart="210.00" departLane="best" departPos="base" departSpeed="max" arrivalPos="-1.00">
        <route edges="em mw"/>
    </vehicle>
    <vehicle id="wm2mePKW_38" type="PKW" depart="214.00" departLane="best" departPos="base" departSpeed="max" arrivalPos="-1.00">
        <route edges="wm me"/>
    </vehicle>
    <vehicle id="sm2mnPKW_9" type="PKW" depart="215.00" departLane="best" departPos="base" departSpeed="max" arrivalPos="-1.00">
        <route edges="sm mn"/>
    </vehicle>
    <vehicle id="em2mwPKW_31" type="PKW" depart="217.00" departLane="best" departPos="base" departSpeed="max" arrivalPos="-1.00">
        <route edges="em mw"/>
    </vehicle>
    <vehicle id="sm2mePKW_3" type="PKW" depart="220.00" departLane="best" departPos="base" departSpeed="max" arrivalPos="-1.00">
        <route edges="sm me"/>
    </vehicle>
    <vehicle id="wm2mePKW_39" type="PKW" depart="220.00" departLane="best" departPos="base" departSpeed="max" arrivalPos="-1.00">
        <route edges="wm me"/>
    </vehicle>
    <vehicle id="nm2msPKW_9" type="PKW" depart="223.00" departLane="best" departPos="base" departSpeed="max" arrivalPos="-1.00">
        <route edges="nm ms"/>
    </vehicle>
    <vehicle id="em2mwPKW_32" type="PKW" depart="224.00" departLane="best" departPos="base" departSpeed="max" arrivalPos="-1.00">
        <route edges="em mw"/>
    </vehicle>
    <vehicle id="wm2msPKW_8" type="PKW" depart="225.00" departLane="best" departPos="base" departSpeed="max" arrivalPos="-1.00">
        <route edges="wm ms"/>
    </vehicle>
    <vehicle id="wm2mePKW_40" type="PKW" depart="226.00" departLane="best" departPos="base" departSpeed="max" arrivalPos="-1.00">
        <route edges="wm me"/>
    </vehicle>
    <vehicle id="em2mwPKW_33" type="PKW" depart="231.00" departLane="best" departPos="base" departSpeed="max" arrivalPos="-1.00">
        <route edges="em mw"/>
    </vehicle>
    <vehicle id="wm2mePKW_41" type="PKW" depart="231.00" departLane="best" departPos="base" departSpeed="max" arrivalPos="-1.00">
        <route edges="wm me"/>
    </vehicle>
    <vehicle id="em2msPKW_3" type="PKW" depart="235.00" departLane="best" departPos="base" departSpeed="max" arrivalPos="-1.00">
        <route edges="em ms"/>
    </vehicle>
    <vehicle id="sm2mwPKW_6" type="PKW" depart="237.00" departLane="best" departPos="base" departSpeed="max" arrivalPos="-1.00">
        <route edges="sm mw"/>
    </vehicle>
    <vehicle id="wm2mePKW_42" type="PKW" depart="237.00" departLane="best" departPos="base" departSpeed="max" arrivalPos="-1.00">
        <route edges="wm me"/>
    </vehicle>
    <vehicle id="em2mwPKW_34" type="PKW" depart="238.00" departLane="best" departPos="base" departSpeed="max" arrivalPos="-1.00">
        <route edges="em mw"/>
    </vehicle>
    <vehicle id="sm2mnPKW_10" type="PKW" depart="238.00" departLane="best" departPos="base" departSpeed="max" arrivalPos="-1.00">
        <route edges="sm mn"/>
    </vehicle>
    <vehicle id="wm2mePKW_43" type="PKW" depart="243.00" departLane="best" departPos="base" departSpeed="max" arrivalPos="-1.00">
        <route edges="wm me"/>
    </vehicle>
    <vehicle id="em2mwPKW_35" type="PKW" depart="245.00" departLane="best" departPos="base" departSpeed="max" arrivalPos="-1.00">
        <route edges="em mw"/>
    </vehicle>
    <vehicle id="nm2msPKW_10" type="PKW" depart="248.00" departLane="best" departPos="base" departSpeed="max" arrivalPos="-1.00">
        <route edges="nm ms"/>
    </vehicle>
    <vehicle id="wm2mePKW_44" type="PKW" depart="248.00" departLane="best" departPos="base" departSpeed="max" arrivalPos="-1.00">
        <route edges="wm me"/>
    </vehicle>
    <vehicle id="em2mwPKW_36" type="PKW" depart="252.00" departLane="best" departPos="base" departSpeed="max" arrivalPos="-1.00">
        <route edges="em mw"/>
    </vehicle>
    <vehicle id="em2mwLKW_4" type="LKW" depart="253.00" departLane="best" departPos="base" departSpeed="max" arrivalPos="-1.00">
        <route edges="em mw"/>
    </vehicle>
    <vehicle id="nm2mwPKW_4" type="PKW" depart="253.00" departLane="best" departPos="base" departSpeed="max" arrivalPos="-1.00">
        <route edges="nm mw"/>
    </vehicle>
    <vehicle id="wm2msPKW_9" type="PKW" depart="253.00" departLane="best" departPos="base" departSpeed="max" arrivalPos="-1.00">
        <route edges="wm ms"/>
    </vehicle>
    <vehicle id="wm2mePKW_45" type="PKW" depart="254.00" departLane="best" departPos="base" departSpeed="max" arrivalPos="-1.00">
        <route edges="wm me"/>
    </vehicle>