<?xml version='1.0' encoding='UTF-8'?>
<!-- generated on Thu Apr 15 19:08:40 2021 by Eclipse SUMO netconvert Version 1.7.0
<configuration xmlns:xsi="http://www.w3.org/2001/XMLSchema-instance" xsi:noNamespaceSchemaLocation="http://sumo.dlr.de/xsd/netconvertConfiguration.xsd">

    <input>
        <type-files value="/home/yoshida/carla/Co-Simulation/Sumo/util/data/opendrive_netconvert.typ.xml"/>
        <opendrive-files value="../osm_web_wizard/2021-04-15-19-02-35/tmp.xodr"/>
    </input>

    <output>
        <output-file value="/tmp/tmpxntxtu4c/tmp.net.xml"/>
        <output.original-names value="true"/>
    </output>

    <processing>
        <geometry.remove value="true"/>
        <geometry.min-radius.fix value="true"/>
        <geometry.max-grade.fix value="false"/>
    </processing>

    <tls_building>
        <tls.discard-loaded value="true"/>
        <tls.left-green.time value="0"/>
    </tls_building>

    <junctions>
        <rectangular-lane-cut value="true"/>
    </junctions>

    <formats>
        <opendrive.import-all-lanes value="true"/>
        <opendrive.curve-resolution value="1"/>
    </formats>

    <report>
        <aggregate-warnings value="5"/>
    </report>

</configuration>
-->
<net xmlns:xsi="http://www.w3.org/2001/XMLSchema-instance" version="1.6" junctionCornerDetail="5" rectangularLaneCut="true" limitTurnSpeed="5.50" xsi:noNamespaceSchemaLocation="http://sumo.dlr.de/xsd/net_file.xsd">

  <!--
  <location netOffset="-389610.86,-5819107.27" convBoundary="0.00,0.00,4933.28,3343.01" origBoundary="13.372213,52.501727,13.445870,52.541230" projParameter="+proj=utm +zone=33 +ellps=WGS84 +datum=WGS84 +units=m +no_defs"/>
  -->
  <location netOffset="1.12,1.42" convBoundary="0.00,0.00,3421.37,1873.38" origBoundary="-3.83,-3.92,3422.99,1874.51" projParameter="!"/>
  <type id="bidirectional" priority="1" speed="1.39" disallow="pedestrian tram rail_urban rail rail_electric rail_fast ship" width="3.65"/>
  <type id="biking" priority="-1" speed="5.56" allow="bicycle" width="1.50"/>
  <type id="border" priority="0" speed="1.39" disallow="all" discard="1" width="0.10"/>
  <type id="driving" priority="1" speed="13.89" disallow="pedestrian tram rail_urban rail rail_electric rail_fast ship" width="3.65"/>
  <type id="entry" priority="1" speed="22.22" disallow="pedestrian tram rail_urban rail rail_electric rail_fast ship" width="3.65"/>
  <type id="exit" priority="1" speed="22.22" disallow="pedestrian tram rail_urban rail rail_electric rail_fast ship" width="3.65"/>
  <type id="median" priority="0" speed="1.39" disallow="all" discard="1" width="0.10"/>
  <type id="mwyEntry" priority="1" speed="22.22" allow="private emergency authority army vip passenger hov taxi bus coach delivery truck trailer motorcycle evehicle custom1 custom2" width="3.65"/>
  <type id="mwyExit" priority="1" speed="22.22" allow="private emergency authority army vip passenger hov taxi bus coach delivery truck trailer motorcycle evehicle custom1 custom2" width="3.65"/>
  <type id="none" priority="0" speed="1.39" disallow="all" discard="1" width="1.00"/>
  <type id="offRamp" priority="1" speed="22.22" allow="private emergency authority army vip passenger hov taxi bus coach delivery truck trailer motorcycle evehicle custom1 custom2" width="3.65"/>
  <type id="onRamp" priority="1" speed="22.22" allow="private emergency authority army vip passenger hov taxi bus coach delivery truck trailer motorcycle evehicle custom1 custom2" width="3.65"/>
  <type id="parking" priority="1" speed="1.39" disallow="pedestrian tram rail_urban rail rail_electric rail_fast ship" width="2.50"/>
  <type id="rail" priority="3" speed="33.33" allow="rail_urban rail rail_electric rail_fast" width="3.65"/>
  <type id="restricted" priority="0" speed="13.89" disallow="all" width="3.65"/>
  <type id="roadWorks" priority="0" speed="1.39" allow="authority" width="3.65"/>
  <type id="shoulder" priority="0" speed="1.39" disallow="all" discard="1" width="1.00"/>
  <type id="sidewalk" priority="-2" speed="2.78" allow="pedestrian" width="2.50"/>
  <type id="special1" priority="1" speed="22.22" allow="custom1" discard="1" width="3.65"/>
  <type id="special2" priority="1" speed="22.22" allow="custom2" discard="1" width="3.65"/>
  <type id="special3" priority="1" speed="22.22" allow="custom1 custom2" discard="1" width="3.65"/>
  <type id="stop" priority="1" speed="13.89" disallow="pedestrian tram rail_urban rail rail_electric rail_fast ship" width="3.65"/>
  <type id="tram" priority="2" speed="13.89" allow="tram" width="3.65"/>
  <edge id=":1_0" function="internal">
    <lane id=":1_0_0" index="0" disallow="pedestrian tram rail_urban rail rail_electric rail_fast ship" speed="8.17" length="12.18" width="4.00" shape="357.74,580.86 353.90,580.71 350.89,581.35 348.70,582.80 347.34,585.05">
      <param key="origId" value="4263_-1"/>
    </lane>
  </edge>
  <edge id=":1_1" function="internal">
    <lane id=":1_1_0" index="0" disallow="pedestrian tram rail_urban rail rail_electric rail_fast ship" speed="8.34" length="18.87" width="4.00" shape="357.74,580.86 352.25,579.84 348.58,578.68 344.91,577.52 339.42,576.51">
      <param key="origId" value="4264_-2"/>
    </lane>
    <lane id=":1_1_1" index="1" disallow="pedestrian tram rail_urban rail rail_electric rail_fast ship" speed="8.34" length="18.87" width="4.00" shape="358.26,576.90 352.77,575.87 349.09,574.71 345.42,573.56 339.93,572.54">
      <param key="origId" value="4264_-1"/>
    </lane>
  </edge>
  <edge id=":1_3" function="internal">
    <lane id=":1_3_0" index="0" disallow="pedestrian tram rail_urban rail rail_electric rail_fast ship" speed="7.37" length="13.93" width="4.00" shape="358.78,572.93 354.24,571.87 351.40,570.11 350.29,567.64 350.88,564.48">
      <param key="origId" value="4265_-1"/>
    </lane>
  </edge>
  <edge id=":1_4" function="internal">
    <lane id=":1_4_0" index="0" disallow="pedestrian tram rail_urban rail rail_electric rail_fast ship" speed="11.11" length="20.42" width="4.00" shape="354.59,565.96 347.34,585.05">
      <param key="origId" value="4266_-1"/>
    </lane>
  </edge>
  <edge id=":1_5" function="internal">
    <lane id=":1_5_0" index="0" disallow="pedestrian tram rail_urban rail rail_electric rail_fast ship" speed="8.34" length="17.38" width="4.00" shape="354.59,565.96 352.42,569.38 349.25,571.62 345.09,572.67 339.93,572.54">
      <param key="origId" value="4267_-1"/>
    </lane>
  </edge>
  <edge id=":1_6" function="internal">
    <lane id=":1_6_0" index="0" disallow="pedestrian tram rail_urban rail rail_electric rail_fast ship" speed="4.08" length="5.84" width="4.00" shape="354.59,565.96 353.10,566.98 351.99,567.08 351.25,566.24 350.88,564.48">
      <param key="origId" value="4268_-1"/>
    </lane>
  </edge>
  <edge id=":1_7" function="internal">
    <lane id=":1_7_0" index="0" disallow="pedestrian tram rail_urban rail rail_electric rail_fast ship" speed="5.55" length="10.03" width="4.00" shape="343.57,583.70 344.18,580.86 343.68,578.72 342.10,577.27 339.42,576.51">
      <param key="origId" value="4269_-1"/>
    </lane>
  </edge>
  <edge id=":1_8" function="internal">
    <lane id=":1_8_0" index="0" disallow="pedestrian tram rail_urban rail rail_electric rail_fast ship" speed="11.11" length="20.56" width="4.00" shape="343.57,583.70 350.88,564.48">
      <param key="origId" value="4270_-1"/>
    </lane>
  </edge>
  <edge id=":1_9" function="internal">
    <lane id=":1_9_0" index="0" disallow="pedestrian tram rail_urban rail rail_electric rail_fast ship" speed="4.08" length="5.84" width="4.00" shape="343.57,583.70 345.02,582.63 346.13,582.49 346.90,583.30 347.34,585.05">
      <param key="origId" value="4271_-1"/>
    </lane>
  </edge>
  <edge id=":10_0" function="internal">
    <lane id=":10_0_0" index="0" disallow="pedestrian tram rail_urban rail rail_electric rail_fast ship" speed="4.08" length="5.84" width="4.00" shape="693.98,717.85 692.59,716.70 692.19,715.66 692.79,714.71 694.38,713.87">
      <param key="origId" value="5494_-1"/>
    </lane>
  </edge>
  <edge id=":100_0" function="internal">
    <lane id=":100_0_0" index="0" disallow="pedestrian tram rail_urban rail rail_electric rail_fast ship" speed="8.77" length="15.30" width="4.00" shape="507.40,286.74 502.72,285.58 498.90,285.69 495.94,287.08 493.84,289.75">
      <param key="origId" value="4688_-1"/>
    </lane>
  </edge>
  <edge id=":100_1" function="internal">
    <lane id=":100_1_0" index="0" disallow="pedestrian tram rail_urban rail rail_electric rail_fast ship" speed="8.33" length="25.21" width="4.00" shape="507.40,286.74 483.58,278.47">
      <param key="origId" value="4689_-1"/>
    </lane>
  </edge>
  <edge id=":100_2" function="internal">
    <lane id=":100_2_0" index="0" disallow="pedestrian tram rail_urban rail rail_electric rail_fast ship" speed="9.15" length="20.46" width="4.00" shape="507.40,286.74 501.58,283.95 498.16,280.51 497.13,276.41 498.49,271.67">
      <param key="origId" value="4690_-1"/>
    </lane>
  </edge>
  <edge id=":100_3" function="internal">
    <lane id=":100_3_0" index="0" disallow="pedestrian tram rail_urban rail rail_electric rail_fast ship" speed="4.08" length="5.84" width="4.00" shape="507.40,286.74 506.31,285.30 506.17,284.19 506.98,283.41 508.72,282.97">
      <param key="origId" value="4691_-1"/>
    </lane>
  </edge>
  <edge id=":100_4" function="internal">
    <lane id=":100_4_0" index="0" disallow="pedestrian tram rail_urban rail rail_electric rail_fast ship" speed="6.54" length="9.75" width="4.00" shape="505.63,275.28 504.76,277.86 504.99,280.00 506.31,281.71 508.72,282.97">
      <param key="origId" value="4692_-1"/>
    </lane>
  </edge>
  <edge id=":100_5" function="internal">
    <lane id=":100_5_0" index="0" disallow="pedestrian tram rail_urban rail rail_electric rail_fast ship" speed="13.89" length="18.75" width="4.00" shape="505.63,275.28 502.33,280.43 499.00,283.96 496.04,286.77 493.84,289.75">
      <param key="origId" value="4693_-1"/>
    </lane>
  </edge>
  <edge id=":100_6" function="internal">
    <lane id=":100_6_0" index="0" disallow="pedestrian tram rail_urban rail rail_electric rail_fast ship" speed="10.24" length="10.51" width="4.00" shape="502.06,273.48 499.08,277.41 495.00,279.55 494.04,279.62">
      <param key="origId" value="4694_-1"/>
    </lane>
  </edge>
  <edge id=":100_7" function="internal">
    <lane id=":100_7_0" index="0" disallow="pedestrian tram rail_urban rail rail_electric rail_fast ship" speed="4.08" length="3.24" width="4.00" shape="502.06,273.48 500.49,274.36 499.38,274.36 499.18,274.10">
      <param key="origId" value="4695_-1"/>
    </lane>
  </edge>
  <edge id=":100_16" function="internal">
    <lane id=":100_16_0" index="0" disallow="pedestrian tram rail_urban rail rail_electric rail_fast ship" speed="10.24" length="10.63" width="4.00" shape="494.04,279.62 489.84,279.91 483.58,278.47">
      <param key="origId" value="4694_-1"/>
    </lane>
  </edge>
  <edge id=":100_17" function="internal">
    <lane id=":100_17_0" index="0" disallow="pedestrian tram rail_urban rail rail_electric rail_fast ship" speed="4.08" length="2.60" width="4.00" shape="499.18,274.10 498.71,273.46 498.49,271.67">
      <param key="origId" value="4695_-1"/>
    </lane>
  </edge>
  <edge id=":100_8" function="internal">
    <lane id=":100_8_0" index="0" disallow="pedestrian tram rail_urban rail rail_electric rail_fast ship" speed="8.81" length="15.34" width="4.00" shape="484.88,274.69 489.59,275.83 493.43,275.70 496.40,274.32 498.49,271.67">
      <param key="origId" value="4696_-1"/>
    </lane>
  </edge>
  <edge id=":100_9" function="internal">
    <lane id=":100_9_0" index="0" disallow="pedestrian tram rail_urban rail rail_electric rail_fast ship" speed="8.33" length="25.24" width="4.00" shape="484.88,274.69 508.72,282.97">
      <param key="origId" value="4697_-1"/>
    </lane>
  </edge>
  <edge id=":100_10" function="internal">
    <lane id=":100_10_0" index="0" disallow="pedestrian tram rail_urban rail rail_electric rail_fast ship" speed="9.14" length="20.53" width="4.00" shape="484.88,274.69 490.74,277.45 494.18,280.87 495.21,284.97 493.84,289.75">
      <param key="origId" value="4698_-1"/>
    </lane>
  </edge>
  <edge id=":100_11" function="internal">
    <lane id=":100_11_0" index="0" disallow="pedestrian tram rail_urban rail rail_electric rail_fast ship" speed="4.08" length="5.84" width="4.00" shape="484.88,274.69 485.97,276.12 486.12,277.23 485.33,278.01 483.58,278.47">
      <param key="origId" value="4699_-1"/>
    </lane>
  </edge>
  <edge id=":100_12" function="internal">
    <lane id=":100_12_0" index="0" disallow="pedestrian tram rail_urban rail rail_electric rail_fast ship" speed="6.53" length="9.76" width="4.00" shape="486.70,286.14 487.57,283.55 487.34,281.41 486.01,279.72 483.58,278.47">
      <param key="origId" value="4700_-1"/>
    </lane>
  </edge>
  <edge id=":100_13" function="internal">
    <lane id=":100_13_0" index="0" disallow="pedestrian tram rail_urban rail rail_electric rail_fast ship" speed="13.89" length="18.75" width="4.00" shape="486.70,286.14 490.00,280.99 493.33,277.45 496.29,274.64 498.49,271.67">
      <param key="origId" value="4701_-1"/>
    </lane>
  </edge>
  <edge id=":100_14" function="internal">
    <lane id=":100_14_0" index="0" disallow="pedestrian tram rail_urban rail rail_electric rail_fast ship" speed="10.20" length="10.56" width="4.00" shape="490.27,287.94 493.27,283.98 497.34,281.83 498.32,281.77">
      <param key="origId" value="4702_-1"/>
    </lane>
  </edge>
  <edge id=":100_15" function="internal">
    <lane id=":100_15_0" index="0" disallow="pedestrian tram rail_urban rail rail_electric rail_fast ship" speed="4.08" length="3.24" width="4.00" shape="490.27,287.94 491.84,287.05 492.95,287.06 493.15,287.32">
      <param key="origId" value="4703_-1"/>
    </lane>
  </edge>
  <edge id=":100_18" function="internal">
    <lane id=":100_18_0" index="0" disallow="pedestrian tram rail_urban rail rail_electric rail_fast ship" speed="10.20" length="10.58" width="4.00" shape="498.32,281.77 502.49,281.49 508.72,282.97">
      <param key="origId" value="4702_-1"/>
    </lane>
  </edge>
  <edge id=":100_19" function="internal">
    <lane id=":100_19_0" index="0" disallow="pedestrian tram rail_urban rail rail_electric rail_fast ship" speed="4.08" length="2.60" width="4.00" shape="493.15,287.32 493.62,287.96 493.84,289.75">
      <param key="origId" value="4703_-1"/>
    </lane>
  </edge>
  <edge id=":101_0" function="internal">
    <lane id=":101_0_0" index="0" disallow="pedestrian tram rail_urban rail rail_electric rail_fast ship" speed="11.11" length="19.66" width="4.00" shape="1548.73,447.93 1530.43,440.75">
      <param key="origId" value="5570_-1"/>
    </lane>
  </edge>
  <edge id=":101_1" function="internal">
    <lane id=":101_1_0" index="0" disallow="pedestrian tram rail_urban rail rail_electric rail_fast ship" speed="8.33" length="9.67" width="4.00" shape="1548.73,447.93 1543.11,445.08 1540.77,442.66">
      <param key="origId" value="5571_-1"/>
    </lane>
  </edge>
  <edge id=":101_2" function="internal">
    <lane id=":101_2_0" index="0" disallow="pedestrian tram rail_urban rail rail_electric rail_fast ship" speed="4.08" length="2.92" width="4.00" shape="1548.73,447.93 1547.69,446.47 1547.57,445.35">
      <param key="origId" value="5572_-1"/>
    </lane>
  </edge>
  <edge id=":101_12" function="internal">
    <lane id=":101_12_0" index="0" disallow="pedestrian tram rail_urban rail rail_electric rail_fast ship" speed="8.33" length="10.13" width="4.00" shape="1540.77,442.66 1539.81,441.67 1538.84,437.73 1540.20,433.23">
      <param key="origId" value="5571_-1"/>
    </lane>
  </edge>
  <edge id=":101_13" function="internal">
    <lane id=":101_13_0" index="0" disallow="pedestrian tram rail_urban rail rail_electric rail_fast ship" speed="4.08" length="2.92" width="4.00" shape="1547.57,445.35 1548.40,444.60 1550.15,444.20">
      <param key="origId" value="5572_-1"/>
    </lane>
  </edge>
  <edge id=":101_3" function="internal">
    <lane id=":101_3_0" index="0" disallow="pedestrian tram rail_urban rail rail_electric rail_fast ship" speed="7.40" length="12.82" width="4.00" shape="1543.73,435.10 1543.04,437.75 1543.88,440.14 1546.25,442.29 1550.15,444.20">
      <param key="origId" value="5573_-1"/>
    </lane>
  </edge>
  <edge id=":101_4" function="internal">
    <lane id=":101_4_0" index="0" disallow="pedestrian tram rail_urban rail rail_electric rail_fast ship" speed="8.99" length="16.02" width="4.00" shape="1543.73,435.10 1541.16,438.75 1538.09,440.90 1534.51,441.57 1530.43,440.75">
      <param key="origId" value="5574_-1"/>
    </lane>
  </edge>
  <edge id=":101_5" function="internal">
    <lane id=":101_5_0" index="0" disallow="pedestrian tram rail_urban rail rail_electric rail_fast ship" speed="4.08" length="5.84" width="4.00" shape="1543.73,435.10 1542.15,435.96 1541.03,435.94 1540.38,435.03 1540.20,433.23">
      <param key="origId" value="5575_-1"/>
    </lane>
  </edge>
  <edge id=":101_6" function="internal">
    <lane id=":101_6_0" index="0" disallow="pedestrian tram rail_urban rail rail_electric rail_fast ship" speed="7.32" length="10.21" width="4.00" shape="1531.78,436.99 1534.33,437.49 1536.59,437.02 1538.54,435.61 1540.20,433.23">
      <param key="origId" value="5576_-1"/>
    </lane>
  </edge>
  <edge id=":101_7" function="internal">
    <lane id=":101_7_0" index="0" disallow="pedestrian tram rail_urban rail rail_electric rail_fast ship" speed="11.11" length="19.73" width="4.00" shape="1531.78,436.99 1550.15,444.20">
      <param key="origId" value="5577_-1"/>
    </lane>
  </edge>
  <edge id=":101_8" function="internal">
    <lane id=":101_8_0" index="0" disallow="pedestrian tram rail_urban rail rail_electric rail_fast ship" speed="4.08" length="2.92" width="4.00" shape="1531.78,436.99 1532.86,438.44 1532.99,439.55">
      <param key="origId" value="5578_-1"/>
    </lane>
  </edge>
  <edge id=":101_14" function="internal">
    <lane id=":101_14_0" index="0" disallow="pedestrian tram rail_urban rail rail_electric rail_fast ship" speed="4.08" length="2.92" width="4.00" shape="1532.99,439.55 1532.18,440.32 1530.43,440.75">
      <param key="origId" value="5578_-1"/>
    </lane>
  </edge>
  <edge id=":101_9" function="internal">
    <lane id=":101_9_0" index="0" disallow="pedestrian tram rail_urban rail rail_electric rail_fast ship" speed="8.10" length="16.21" width="4.00" shape="1540.44,451.06 1541.01,448.34 1539.53,445.71 1536.00,443.18 1530.43,440.75">
      <param key="origId" value="5579_-1"/>
    </lane>
  </edge>
  <edge id=":101_10" function="internal">
    <lane id=":101_10_0" index="0" disallow="pedestrian tram rail_urban rail rail_electric rail_fast ship" speed="8.33" length="18.05" width="4.00" shape="1540.44,451.06 1541.12,447.07 1540.37,442.18 1539.60,437.27 1540.20,433.23">
      <param key="origId" value="5580_-1"/>
    </lane>
  </edge>
  <edge id=":101_11" function="internal">
    <lane id=":101_11_0" index="0" disallow="pedestrian tram rail_urban rail rail_electric rail_fast ship" speed="8.19" length="12.87" width="4.00" shape="1540.44,451.06 1542.91,447.38 1545.36,445.01 1547.77,443.95 1550.15,444.20">
      <param key="origId" value="5581_-1"/>
    </lane>
  </edge>
  <edge id=":102_0" function="internal">
    <lane id=":102_0_0" index="0" disallow="pedestrian tram rail_urban rail rail_electric rail_fast ship" speed="7.71" length="11.63" width="4.00" shape="1470.01,425.15 1466.94,425.03 1464.44,425.93 1462.52,427.82 1461.16,430.73">
      <param key="origId" value="4505_-1"/>
    </lane>
  </edge>
  <edge id=":102_1" function="internal">
    <lane id=":102_1_0" index="0" disallow="pedestrian tram rail_urban rail rail_electric rail_fast ship" speed="13.89" length="17.32" width="4.00" shape="1470.01,425.15 1452.86,422.72">
      <param key="origId" value="4506_-1"/>
    </lane>
  </edge>
  <edge id=":102_2" function="internal">
    <lane id=":102_2_0" index="0" disallow="pedestrian tram rail_urban rail rail_electric rail_fast ship" speed="8.35" length="16.87" width="4.00" shape="1470.01,425.15 1465.54,423.64 1462.83,421.09 1461.89,417.49 1462.71,412.85">
      <param key="origId" value="4507_-1"/>
    </lane>
  </edge>
  <edge id=":102_3" function="internal">
    <lane id=":102_3_0" index="0" disallow="pedestrian tram rail_urban rail rail_electric rail_fast ship" speed="4.08" length="5.84" width="4.00" shape="1470.01,425.15 1468.71,423.89 1468.40,422.82 1469.07,421.92 1470.73,421.21">
      <param key="origId" value="4508_-1"/>
    </lane>
  </edge>
  <edge id=":102_4" function="internal">
    <lane id=":102_4_0" index="0" disallow="pedestrian tram rail_urban rail rail_electric rail_fast ship" speed="6.53" length="9.76" width="4.00" shape="1466.50,414.10 1466.03,416.78 1466.58,418.87 1468.14,420.34 1470.73,421.21">
      <param key="origId" value="4509_-1"/>
    </lane>
  </edge>
  <edge id=":102_5" function="internal">
    <lane id=":102_5_0" index="0" disallow="pedestrian tram rail_urban rail rail_electric rail_fast ship" speed="8.33" length="17.47" width="4.00" shape="1466.50,414.10 1461.16,430.73">
      <param key="origId" value="4510_-1"/>
    </lane>
  </edge>
  <edge id=":102_6" function="internal">
    <lane id=":102_6_0" index="0" disallow="pedestrian tram rail_urban rail rail_electric rail_fast ship" speed="9.57" length="7.43" width="4.00" shape="1466.50,414.10 1464.44,417.56 1461.84,419.75">
      <param key="origId" value="4511_-1"/>
    </lane>
  </edge>
  <edge id=":102_7" function="internal">
    <lane id=":102_7_0" index="0" disallow="pedestrian tram rail_urban rail rail_electric rail_fast ship" speed="4.08" length="2.92" width="4.00" shape="1466.50,414.10 1465.09,415.21 1463.98,415.37">
      <param key="origId" value="4512_-1"/>
    </lane>
  </edge>
  <edge id=":102_16" function="internal">
    <lane id=":102_16_0" index="0" disallow="pedestrian tram rail_urban rail rail_electric rail_fast ship" speed="9.57" length="9.66" width="4.00" shape="1461.84,419.75 1461.04,420.42 1456.97,422.28 1452.86,422.72">
      <param key="origId" value="4511_-1"/>
    </lane>
  </edge>
  <edge id=":102_17" function="internal">
    <lane id=":102_17_0" index="0" disallow="pedestrian tram rail_urban rail rail_electric rail_fast ship" speed="4.08" length="2.92" width="4.00" shape="1463.98,415.37 1463.19,414.59 1462.71,412.85">
      <param key="origId" value="4512_-1"/>
    </lane>
  </edge>
  <edge id=":102_8" function="internal">
    <lane id=":102_8_0" index="0" disallow="pedestrian tram rail_urban rail rail_electric rail_fast ship" speed="8.17" length="12.17" width="4.00" shape="1453.26,418.74 1456.58,418.65 1459.25,417.64 1461.30,415.70 1462.71,412.85">
      <param key="origId" value="4513_-1"/>
    </lane>
  </edge>
  <edge id=":102_9" function="internal">
    <lane id=":102_9_0" index="0" disallow="pedestrian tram rail_urban rail rail_electric rail_fast ship" speed="13.89" length="17.64" width="4.00" shape="1453.26,418.74 1470.73,421.21">
      <param key="origId" value="4514_-1"/>
    </lane>
  </edge>
  <edge id=":102_10" function="internal">
    <lane id=":102_10_0" index="0" disallow="pedestrian tram rail_urban rail rail_electric rail_fast ship" speed="8.26" length="17.26" width="4.00" shape="1453.26,418.74 1457.99,419.92 1460.89,422.31 1461.94,425.91 1461.16,430.73">
      <param key="origId" value="4515_-1"/>
    </lane>
  </edge>
  <edge id=":102_11" function="internal">
    <lane id=":102_11_0" index="0" disallow="pedestrian tram rail_urban rail rail_electric rail_fast ship" speed="4.08" length="5.84" width="4.00" shape="1453.26,418.74 1454.65,419.89 1455.05,420.93 1454.45,421.88 1452.86,422.72">
      <param key="origId" value="4516_-1"/>
    </lane>
  </edge>
  <edge id=":102_12" function="internal">
    <lane id=":102_12_0" index="0" disallow="pedestrian tram rail_urban rail rail_electric rail_fast ship" speed="6.42" length="9.81" width="4.00" shape="1457.35,429.53 1457.79,426.79 1457.19,424.75 1455.55,423.39 1452.86,422.72">
      <param key="origId" value="4517_-1"/>
    </lane>
  </edge>
  <edge id=":102_13" function="internal">
    <lane id=":102_13_0" index="0" disallow="pedestrian tram rail_urban rail rail_electric rail_fast ship" speed="8.33" length="17.52" width="4.00" shape="1457.35,429.53 1462.71,412.85">
      <param key="origId" value="4518_-1"/>
    </lane>
  </edge>
  <edge id=":102_14" function="internal">
    <lane id=":102_14_0" index="0" disallow="pedestrian tram rail_urban rail rail_electric rail_fast ship" speed="9.14" length="7.76" width="4.00" shape="1457.35,429.53 1459.38,425.98 1462.17,423.60">
      <param key="origId" value="4519_-1"/>
    </lane>
  </edge>
  <edge id=":102_15" function="internal">
    <lane id=":102_15_0" index="0" disallow="pedestrian tram rail_urban rail rail_electric rail_fast ship" speed="4.08" length="2.92" width="4.00" shape="1457.35,429.53 1458.75,428.40 1459.85,428.22">
      <param key="origId" value="4520_-1"/>
    </lane>
  </edge>
  <edge id=":102_18" function="internal">
    <lane id=":102_18_0" index="0" disallow="pedestrian tram rail_urban rail rail_electric rail_fast ship" speed="9.14" length="9.09" width="4.00" shape="1462.17,423.60 1462.72,423.14 1466.71,421.41 1470.73,421.21">
      <param key="origId" value="4519_-1"/>
    </lane>
  </edge>
  <edge id=":102_19" function="internal">
    <lane id=":102_19_0" index="0" disallow="pedestrian tram rail_urban rail rail_electric rail_fast ship" speed="4.08" length="2.92" width="4.00" shape="1459.85,428.22 1460.66,429.00 1461.16,430.73">
      <param key="origId" value="4520_-1"/>
    </lane>
  </edge>
  <edge id=":103_0" function="internal">
    <lane id=":103_0_0" index="0" disallow="pedestrian tram rail_urban rail rail_electric rail_fast ship" speed="4.08" length="5.84" width="4.00" shape="2120.98,1202.08 2122.37,1200.93 2123.47,1200.74 2124.29,1201.51 2124.81,1203.23">
      <param key="origId" value="4225_-1"/>
    </lane>
  </edge>
  <edge id=":104_0" function="internal">
    <lane id=":104_0_0" index="0" disallow="pedestrian tram rail_urban rail rail_electric rail_fast ship" speed="2.78" length="9.89" width="4.00" shape="1738.87,1738.92 1739.58,1741.67 1740.96,1743.26 1743.02,1743.66 1745.76,1742.89">
      <param key="origId" value="5228_-1"/>
    </lane>
  </edge>
  <edge id=":104_1" function="internal">
    <lane id=":104_1_0" index="0" disallow="pedestrian tram rail_urban rail rail_electric rail_fast ship" speed="2.78" length="3.11" width="4.00" shape="1738.87,1738.92 1738.04,1740.52 1737.10,1741.12 1736.93,1741.06">
      <param key="origId" value="5229_-1"/>
    </lane>
  </edge>
  <edge id=":104_4" function="internal">
    <lane id=":104_4_0" index="0" disallow="pedestrian tram rail_urban rail rail_electric rail_fast ship" speed="2.78" length="2.74" width="4.00" shape="1736.93,1741.06 1736.05,1740.73 1734.90,1739.35">
      <param key="origId" value="5229_-1"/>
    </lane>
  </edge>
  <edge id=":104_2" function="internal">
    <lane id=":104_2_0" index="0" disallow="pedestrian tram rail_urban rail rail_electric rail_fast ship" speed="2.78" length="11.77" width="4.00" shape="1730.78,1749.52 1732.90,1748.06 1734.30,1745.87 1734.96,1742.97 1734.90,1739.35">
      <param key="origId" value="5230_-1"/>
    </lane>
  </edge>
  <edge id=":104_3" function="internal">
    <lane id=":104_3_0" index="0" disallow="pedestrian tram rail_urban rail rail_electric rail_fast ship" speed="2.78" length="16.39" width="4.00" shape="1730.78,1749.52 1745.76,1742.89">
      <param key="origId" value="5231_-1"/>
    </lane>
  </edge>
  <edge id=":105_0" function="internal">
    <lane id=":105_0_0" index="0" disallow="pedestrian tram rail_urban rail rail_electric rail_fast ship" speed="2.78" length="5.84" width="4.00" shape="1723.36,1633.82 1724.19,1632.22 1725.13,1631.61 1726.18,1632.00 1727.34,1633.38">
      <param key="origId" value="4604_-1"/>
    </lane>
  </edge>
  <edge id=":106_0" function="internal">
    <lane id=":106_0_0" index="0" disallow="pedestrian tram rail_urban rail rail_electric rail_fast ship" speed="8.33" length="11.09" width="4.00" shape="1958.19,1655.63 1954.93,1645.02">
      <param key="origId" value="5222_-1"/>
    </lane>
  </edge>
  <edge id=":106_1" function="internal">
    <lane id=":106_1_0" index="0" disallow="pedestrian tram rail_urban rail rail_electric rail_fast ship" speed="4.08" length="2.92" width="4.00" shape="1958.19,1655.63 1958.69,1653.90 1959.50,1653.12">
      <param key="origId" value="5223_-1"/>
    </lane>
  </edge>
  <edge id=":106_6" function="internal">
    <lane id=":106_6_0" index="0" disallow="pedestrian tram rail_urban rail rail_electric rail_fast ship" speed="4.08" length="2.92" width="4.00" shape="1959.50,1653.12 1960.60,1653.30 1962.00,1654.44">
      <param key="origId" value="5223_-1"/>
    </lane>
  </edge>
  <edge id=":106_2" function="internal">
    <lane id=":106_2_0" index="0" disallow="pedestrian tram rail_urban rail rail_electric rail_fast ship" speed="8.33" length="11.05" width="4.00" shape="1958.76,1643.87 1962.00,1654.44">
      <param key="origId" value="5224_-1"/>
    </lane>
  </edge>
  <edge id=":106_3" function="internal">
    <lane id=":106_3_0" index="0" disallow="pedestrian tram rail_urban rail rail_electric rail_fast ship" speed="4.08" length="2.92" width="4.00" shape="1958.76,1643.87 1958.24,1645.59 1957.43,1646.36">
      <param key="origId" value="5225_-1"/>
    </lane>
  </edge>
  <edge id=":106_7" function="internal">
    <lane id=":106_7_0" index="0" disallow="pedestrian tram rail_urban rail rail_electric rail_fast ship" speed="4.08" length="2.92" width="4.00" shape="1957.43,1646.36 1956.32,1646.17 1954.93,1645.02">
      <param key="origId" value="5225_-1"/>
    </lane>
  </edge>
  <edge id=":106_4" function="internal">