<?xml version="1.0" encoding="UTF-8"?>

<!-- generated on Thu Apr 15 19:02:56 2021 by Eclipse SUMO duarouter Version 1.7.0
<configuration xmlns:xsi="http://www.w3.org/2001/XMLSchema-instance" xsi:noNamespaceSchemaLocation="http://sumo.dlr.de/xsd/duarouterConfiguration.xsd">

    <input>
        <net-file value="/home/yoshida/carla/Co-Simulation/Sumo/osm_web_wizard/2021-04-15-19-02-35/osm.net.xml"/>
        <route-files value="/home/yoshida/carla/Co-Simulation/Sumo/osm_web_wizard/2021-04-15-19-02-35/osm.passenger.trips.xml"/>
    </input>

    <output>
        <output-file value="/home/yoshida/carla/Co-Simulation/Sumo/osm_web_wizard/2021-04-15-19-02-35/osm.passenger.trips.xml.tmp"/>
        <write-trips value="true"/>
    </output>

    <time>
        <begin value="0"/>
        <end value="3600"/>
    </time>

    <report>
        <no-warnings value="true"/>
        <ignore-errors value="true"/>
        <no-step-log value="true"/>
    </report>

</configuration>
-->

<routes xmlns:xsi="http://www.w3.org/2001/XMLSchema-instance" xsi:noNamespaceSchemaLocation="http://sumo.dlr.de/xsd/routes_file.xsd">
    <vType id="veh_passenger" vClass="passenger"/>
    <trip id="veh0" type="veh_passenger" depart="0.00" departLane="best" from="311690284" to="-153698380#2"/>
    <trip id="veh1" type="veh_passenger" depart="2.99" departLane="best" from="-82658674#4" to="-4612981#1"/>
    <trip id="veh2" type="veh_passenger" depart="5.98" departLane="best" departSpeed="max" from="369223458#0" to="326116285#2"/>
    <trip id="veh3" type="veh_passenger" depart="8.98" departLane="best" from="606078065" to="-23386522#3"/>
    <trip id="veh4" type="veh_passenger" depart="11.97" departLane="best" departSpeed="max" from="18997847#0" to="-156364570#3"/>
    <trip id="veh5" type="veh_passenger" depart="14.96" departLane="best" from="-15973619#0" to="-4588217"/>
    <trip id="veh6" type="veh_passenger" depart="17.95" departLane="best" from="312533962#3" to="25086766"/>
    <trip id="veh7" type="veh_passenger" depart="20.94" departLane="best" from="-4613299#1" to="29290632#0"/>
    <trip id="veh8" type="veh_passenger" depart="23.93" departLane="best" from="4611694#1" to="-111833186#1"/>
    <trip id="veh9" type="veh_passenger" depart="26.93" departLane="best" from="4610610#0" to="342968607#1"/>
    <trip id="veh10" type="veh_passenger" depart="29.92" departLane="best" from="156364562#1" to="-328426193#2"/>
    <trip id="veh11" type="veh_passenger" depart="32.91" departLane="best" from="824274188#0" to="164039095#1"/>
    <trip id="veh12" type="veh_passenger" depart="35.90" departLane="best" from="-234463931#2" to="-23755950#4"/>
    <trip id="veh13" type="veh_passenger" depart="38.89" departLane="best" from="465376239" to="301241681#3"/>
    <trip id="veh14" type="veh_passenger" depart="41.88" departLane="best" from="4610612" to="427637455"/>
    <trip id="veh15" type="veh_passenger" depart="44.88" departLane="best" from="24913519#2" to="830728708#4"/>
    <trip id="veh16" type="veh_passenger" depart="47.87" departLane="best" from="171826985#1" to="25086769#1"/>
    <trip id="veh17" type="veh_passenger" depart="50.86" departLane="best" departSpeed="max" from="4612970#0" to="30721660#1"/>
    <trip id="veh18" type="veh_passenger" depart="53.85" departLane="best" from="490365295#0" to="289830064"/>
    <trip id="veh19" type="veh_passenger" depart="56.84" departLane="best" from="335462916" to="-168943642#5"/>
    <trip id="veh20" type="veh_passenger" depart="59.83" departLane="best" from="-4615546#2" to="111833186#0"/>
    <trip id="veh21" type="veh_passenger" depart="62.83" departLane="best" departSpeed="max" from="-22954356#4" to="-4773029#1"/>
    <trip id="veh22" type="veh_passenger" depart="65.82" departLane="best" from="-23813206#0" to="100405009#1"/>
    <trip id="veh23" type="veh_passenger" depart="68.81" departLane="best" from="310176513#6" to="171423001#0"/>
    <trip id="veh24" type="veh_passenger" depart="71.80" departLane="best" from="-743631784" to="734578686"/>
    <trip id="veh25" type="veh_passenger" depart="74.79" departLane="best" from="312533962#2" to="305093247#2"/>
    <trip id="veh26" type="veh_passenger" depart="77.78" departLane="best" from="-387892378" to="424323348"/>
    <trip id="veh27" type="veh_passenger" depart="80.78" departLane="best" from="-35557161#0" to="176043807#7"/>
    <trip id="veh28" type="veh_passenger" depart="83.77" departLane="best" departSpeed="max" from="847103786#0" to="312357351#0"/>
    <trip id="veh29" type="veh_passenger" depart="86.76" departLane="best" from="25086767#1" to="340498976#3"/>
    <trip id="veh30" type="veh_passenger" depart="89.75" departLane="best" from="4615547#0" to="4610608"/>
    <trip id="veh31" type="veh_passenger" depart="92.74" departLane="best" departSpeed="max" from="-4615546#3" to="-15973619#1"/>
    <trip id="veh32" type="veh_passenger" depart="95.73" departLane="best" departSpeed="max" from="-4612427#2" to="753730627#1"/>
    <trip id="veh33" type="veh_passenger" depart="98.73" departLane="best" from="54048862#3" to="153698402#1"/>
    <trip id="veh34" type="veh_passenger" depart="101.72" departLane="best" from="31313667#1" to="189133035#0"/>
    <trip id="veh35" type="veh_passenger" depart="104.71" departLane="best" from="68647306#6" to="232070355#0"/>
    <trip id="veh36" type="veh_passenger" depart="107.70" departLane="best" from="25302636#1" to="-76212441#0"/>
    <trip id="veh37" type="veh_passenger" depart="110.69" departLane="best" from="292429056#0" to="60333309#1"/>
    <trip id="veh38" type="veh_passenger" depart="113.68" departLane="best" departSpeed="max" from="187091988" to="-4612970#0"/>
    <trip id="veh39" type="veh_passenger" depart="116.68" departLane="best" from="902316106#1" to="24241797#3"/>
    <trip id="veh40" type="veh_passenger" depart="119.67" departLane="best" from="-23443935#2" to="-169999355#2"/>
    <trip id="veh41" type="veh_passenger" depart="122.66" departLane="best" from="-24242882#1" to="309300320#0"/>
    <trip id="veh42" type="veh_passenger" depart="125.65" departLane="best" from="4597320#2" to="196850609#2"/>
    <trip id="veh43" type="veh_passenger" depart="128.64" departLane="best" from="-195104960#5" to="177372522"/>
    <trip id="veh45" type="veh_passenger" depart="134.63" departLane="best" from="830728708#2" to="4790839#1"/>
    <trip id="veh46" type="veh_passenger" depart="137.62" departLane="best" from="-128396190#3" to="389101365#3"/>
    <trip id="veh48" type="veh_passenger" depart="143.60" departLane="best" from="-740538839#3" to="312357351#0"/>
    <trip id="veh49" type="veh_passenger" depart="146.59" departLane="best" from="-24243107#0" to="202156995#0"/>
    <trip id="veh50" type="veh_passenger" depart="149.58" departLane="best" from="202156994#0" to="824274187#0"/>
    <trip id="veh51" type="veh_passenger" depart="152.58" departLane="best" from="54048862#3" to="-76212441#0"/>
    <trip id="veh52" type="veh_passenger" depart="155.57" departLane="best" from="68647306#1" to="492609984"/>
    <trip id="veh53" type="veh_passenger" depart="158.56" departLane="best" from="111251382#3" to="312176585"/>
    <trip id="veh54" type="veh_passenger" depart="161.55" departLane="best" from="305093247#0" to="-326116285#1"/>
    <trip id="veh55" type="veh_passenger" depart="164.54" departLane="best" from="437325047#3" to="24914141#7"/>
    <trip id="veh56" type="veh_passenger" depart="167.53" departLane="best" from="454285423#1" to="24913304#2"/>
    <trip id="veh57" type="veh_passenger" depart="170.53" departLane="best" from="-109819340#0" to="156364562#1"/>
    <trip id="veh59" type="veh_passenger" depart="176.51" departLane="best" from="541295978#1" to="465376243#1"/>
    <trip id="veh60" type="veh_passenger" depart="179.50" departLane="best" from="112128419#1" to="-176273730#2"/>
    <trip id="veh61" type="veh_passenger" depart="182.49" departLane="best" from="541295978#1" to="756306892"/>
    <trip id="veh62" type="veh_passenger" depart="185.48" departLane="best" from="-23386522#0" to="23813206#0"/>
    <trip id="veh63" type="veh_passenger" depart="188.48" departLane="best" from="-202156991#1" to="4597320#3"/>
    <trip id="veh64" type="veh_passenger" depart="191.47" departLane="best" from="437325055#0" to="-310176513#0"/>
    <trip id="veh65" type="veh_passenger" depart="194.46" departLane="best" from="23386522#0" to="25086767#2"/>
    <trip id="veh66" type="veh_passenger" depart="197.45" departLane="best" from="-713577963" to="493008124#1"/>
    <trip id="veh67" type="veh_passenger" depart="200.44" departLane="best" from="19001381#1" to="-4611708#4"/>
    <trip id="veh68" type="veh_passenger" depart="203.43" departLane="best" departSpeed="max" from="24914141#0" to="43087099#0"/>
    <trip id="veh69" type="veh_passenger" depart="206.43" departLane="best" from="-4610612" to="153698380#0"/>
    <trip id="veh70" type="veh_passenger" depart="209.42" departLane="best" from="882389497" to="312533962#3"/>
    <trip id="veh71" type="veh_passenger" depart="212.41" departLane="best" from="195401013#2" to="24243107#1"/>
    <trip id="veh72" type="veh_passenger" depart="215.40" departLane="best" departSpeed="max" from="-25294729#1" to="-4613299#0"/>
    <trip id="veh73" type="veh_passenger" depart="218.39" departLane="best" from="156364556#1" to="292429063#0"/>
    <trip id="veh74" type="veh_passenger" depart="221.38" departLane="best" departSpeed="max" from="-4615546#3" to="-4612970#0"/>
    <trip id="veh75" type="veh_passenger" depart="224.38" departLane="best" departSpeed="max" from="-202156991#2" to="310176513#1"/>
    <trip id="veh76" type="veh_passenger" depart="227.37" departLane="best" departSpeed="max" from="-4615546#3" to="606078065"/>
    <trip id="veh77" type="veh_passenger" depart="230.36" departLane="best" from="47935842" to="-195397561#6"/>
    <trip id="veh78" type="veh_passenger" depart="233.35" departLane="best" from="-47935842" to="318915602#3"/>
    <trip id="veh79" type="veh_passenger" depart="236.34" departLane="best" from="-4612969#0" to="-310177222#0"/>
    <trip id="veh80" type="veh_passenger" depart="239.33" departLane="best" from="749876417" to="288584715"/>
    <trip id="veh81" type="veh_passenger" depart="242.33" departLane="best" from="23121445#1" to="4611708#1"/>
    <trip id="veh82" type="veh_passenger" depart="245.32" departLane="best" from="4611693#0" to="-4402228"/>
    <trip id="veh83" type="veh_passenger" depart="248.31" departLane="best" from="-23755739#2" to="202156991#2"/>
    <trip id="veh84" type="veh_passenger" depart="251.30" departLane="best" from="19001381#2" to="23386522#1"/>
    <trip id="veh85" type="veh_passenger" depart="254.29" departLane="best" from="354528932" to="320462164#1"/>
    <trip id="veh86" type="veh_passenger" depart="257.28" departLane="best" from="840860363#0" to="-23813206#0"/>
    <trip id="veh87" type="veh_passenger" depart="260.28" departLane="best" departSpeed="max" from="187091988" to="165415452#1"/>
    <trip id="veh88" type="veh_passenger" depart="263.27" departLane="best" from="490365295#0" to="-66071366#1"/>
    <trip id="veh89" type="veh_passenger" depart="266.26" departLane="best" from="-4570580#1" to="22972454"/>
    <trip id="veh90" type="veh_passenger" depart="269.25" departLane="best" departSpeed="max" from="18997847#0" to="100405009#1"/>
    <trip id="veh91" type="veh_passenger" depart="272.24" departLane="best" departSpeed="max" from="-51167934#4" to="68647306#3"/>
    <trip id="veh92" type="veh_passenger" depart="275.23" departLane="best" from="195407521" to="4790839#1"/>
    <trip id="veh93" type="veh_passenger" depart="278.23" departLane="best" from="24914992#1" to="-173296880"/>
    <trip id="veh94" type="veh_passenger" depart="281.22" departLane="best" from="930343901#4" to="4773029#0"/>
    <trip id="veh95" type="veh_passenger" depart="284.21" departLane="best" from="82659290#0" to="705182551"/>
    <trip id="veh96" type="veh_passenger" depart="287.20" departLane="best" from="465376243#1" to="-369223458#0"/>
    <trip id="veh97" type="veh_passenger" depart="290.19" departLane="best" from="236092221#3" to="-4612965"/>
    <trip id="veh98" type="veh_passenger" depart="293.18" departLane="best" departSpeed="max" from="187091988" to="-176273730#2"/>
    <trip id="veh99" type="veh_passenger" depart="296.18" departLane="best" from="171826985#1" to="840860363#1"/>
    <trip id="veh100" type="veh_passenger" depart="299.17" departLane="best" from="-713577963" to="4611708#0"/>
    <trip id="veh101" type="veh_passenger" depart="302.16" departLane="best" from="202156995#0" to="19801548#2"/>
    <trip id="veh102" type="veh_passenger" depart="305.15" departLane="best" from="824274188#0" to="890801131#1"/>
    <trip id="veh103" type="veh_passenger" depart="308.14" departLane="best" from="25086767#0" to="374734389#1"/>
    <trip id="veh104" type="veh_passenger" depart="311.13" departLane="best" from="-335462874#2" to="112128419#2"/>
    <trip id="veh106" type="veh_passenger" depart="317.12" departLane="best" from="-19002363#2" to="29177662#1"/>
    <trip id="veh107" type="veh_passenger" depart="320.11" departLane="best" departSpeed="max" from="23852056#0" to="4790825#1"/>
    <trip id="veh108" type="veh_passenger" depart="323.10" departLane="best" from="-339201177#3" to="82652397#0"/>
    <trip id="veh109" type="veh_passenger" depart="326.09" departLane="best" from="-22972473#2" to="-437325056#2"/>
    <trip id="veh110" type="veh_passenger" depart="329.08" departLane="best" from="294104504#1" to="326116285#0"/>
    <trip id="veh111" type="veh_passenger" depart="332.08" departLane="best" from="-4773029#2" to="-292429056#2"/>
    <trip id="veh112" type="veh_passenger" depart="335.07" departLane="best" from="60333313" to="-6228081"/>
    <trip id="veh113" type="veh_passenger" depart="338.06" departLane="best" from="294104504#1" to="30721660#3"/>
    <trip id="veh114" type="veh_passenger" depart="341.05" departLane="best" from="243854725#4" to="728838409#1"/>
    <trip id="veh115" type="veh_passenger" depart="344.04" departLane="best" from="-4611708#2" to="370359204#1"/>
    <trip id="veh116" type="veh_passenger" depart="347.03" departLane="best" departSpeed="max" from="320462164#0" to="120675240#4"/>
    <trip id="veh117" type="veh_passenger" depart="350.03" departLane="best" from="128396190#4" to="4570580#1"/>
    <trip id="veh118" type="veh_passenger" depart="353.02" departLane="best" from="-202817674#3" to="232070355#0"/>
    <trip id="veh119" type="veh_passenger" depart="356.01" departLane="best" from="930343901#2" to="890801131#1"/>
    <trip id="veh120" type="veh_passenger" depart="359.00" departLane="best" from="-210668637#0" to="-4612427#1"/>
    <trip id="veh121" type="veh_passenger" depart="361.99" departLane="best" from="-713577963" to="728838409#0"/>
    <trip id="veh122" type="veh_passenger" depart="364.98" departLane="best" from="54698846#0" to="51167934#4"/>
    <trip id="veh123" type="veh_passenger" depart="367.98" departLane="best" from="169195795#6" to="-339201177#1"/>
    <trip id="veh124" type="veh_passenger" depart="370.97" departLane="best" from="4613295#0" to="35269774#1"/>
    <trip id="veh126" type="veh_passenger" depart="376.95" departLane="best" from="312651888#1" to="-112128825#0"/>
    <trip id="veh127" type="veh_passenger" depart="379.94" departLane="best" from="4611726" to="120675240#3"/>
    <trip id="veh128" type="veh_passenger" depart="382.93" departLane="best" from="-310176513#3" to="-268002745"/>
    <trip id="veh129" type="veh_passenger" depart="385.93" departLane="best" departSpeed="max" from="-24241762#3" to="251884680"/>
    <trip id="veh130" type="veh_passenger" depart="388.92" departLane="best" from="-82652406#0" to="301241681#4"/>
    <trip id="veh131" type="veh_passenger" depart="391.91" departLane="best" from="340498982#8" to="-4610472#0"/>
    <trip id="veh132" type="veh_passenger" depart="394.90" departLane="best" from="310176513#2" to="-76212441#0"/>
    <trip id="veh133" type="veh_passenger" depart="397.89" departLane="best" from="23809670#1" to="606078065"/>
    <trip id="veh135" type="veh_passenger" depart="403.88" departLane="best" from="19001381#2" to="-930343901#3"/>
    <trip id="veh136" type="veh_passenger" depart="406.87" departLane="best" departSpeed="max" from="-109819340#3" to="4610472#0"/>
    <trip id="veh137" type="veh_passenger" depart="409.86" departLane="best" from="310177222#0" to="-755551646#1"/>
    <trip id="veh138" type="veh_passenger" depart="412.85" departLane="best" from="374734389#0" to="25086769#1"/>
    <trip id="veh139" type="veh_passenger" depart="415.84" departLane="best" from="19002403#1" to="-120675240#3"/>
    <trip id="veh140" type="veh_passenger" depart="418.83" departLane="best" from="-225400578#1" to="534588621#0"/>
    <trip id="veh141" type="veh_passenger" depart="421.83" departLane="best" from="6227658#2" to="25086766"/>
    <trip id="veh142" type="veh_passenger" depart="424.82" departLane="best" from="4613298#1" to="289966845"/>
    <trip id="veh143" type="veh_passenger" depart="427.81" departLane="best" departSpeed="max" from="-31912630#1" to="-30705211#0"/>
    <trip id="veh144" type="veh_passenger" depart="430.80" departLane="best" from="112128419#2" to="60333311#1"/>
    <trip id="veh145" type="veh_passenger" depart="433.79" departLane="best" from="4610362#1" to="4790839#1"/>
    <trip id="veh146" type="veh_passenger" depart="436.78" departLane="best" departSpeed="max" from="6227654#0" to="-4611708#1"/>
    <trip id="veh147" type="veh_passenger" depart="439.78" departLane="best" departSpeed="max" from="-51167934#4" to="-24241790#2"/>
    <trip id="veh149" type="veh_passenger" depart="445.76" departLane="best" from="187111590#0" to="30721662#0"/>
    <trip id="veh151" type="veh_passenger" depart="451.74" departLane="best" from="492609985#0" to="831694400"/>
    <trip id="veh152" type="veh_passenger" depart="454.73" departLane="best" from="4611696#5" to="523630409"/>
    <trip id="veh153" type="veh_passenger" depart="457.73" departLane="best" from="-156364570#3" to="437325047#3"/>
    <trip id="veh154" type="veh_passenger" depart="460.72" departLane="best" from="153698394#1" to="72157174#1"/>
    <trip id="veh156" type="veh_passenger" depart="466.70" departLane="best" from="4611696#5" to="-82652406#0"/>
    <trip id="veh157" type="veh_passenger" depart="469.69" departLane="best" from="534588621#1" to="4790839#1"/>
    <trip id="veh158" type="veh_passenger" depart="472.68" departLane="best" departSpeed="max" from="-4613299#2" to="46140376#2"/>
    <trip id="veh159" type="veh_passenger" depart="475.68" departLane="best" from="204032443#0" to="136571494#4"/>
    <trip id="veh161" type="veh_passenger" depart="481.66" departLane="best" from="-156364570#0" to="-454285423#4"/>
    <trip id="veh163" type="veh_passenger" depart="487.64" departLane="best" from="82658674#1" to="100405009#2"/>
    <trip id="veh164" type="veh_passenger" depart="490.63" departLane="best" from="312357351#0" to="19001381#1"/>
    <trip id="veh166" type="veh_passenger" depart="496.62" departLane="best" from="751602168" to="-25945966"/>
    <trip id="veh167" type="veh_passenger" depart="499.61" departLane="best" from="830728708#1" to="-43159545#0"/>
    <trip id="veh168" type="veh_passenger" depart="502.60" departLane="best" from="82652397#1" to="-7917219#2"/>
    <trip id="veh169" type="veh_passenger" depart="505.59" departLane="best" from="-24241797#2" to="202156995#0"/>
    <trip id="veh170" type="veh_passenger" depart="508.58" departLane="best" from="35269774#3" to="153698394#1"/>
    <trip id="veh171" type="veh_passenger" depart="511.58" departLane="best" from="301241681#4" to="24242882#3"/>
    <trip id="veh173" type="veh_passenger" depart="517.56" departLane="best" from="-566764345" to="35557161#1"/>
    <trip id="veh174" type="veh_passenger" depart="520.55" departLane="best" departSpeed="max" from="24914141#0" to="374734389#2"/>
    <trip id="veh175" type="veh_passenger" depart="523.54" departLane="best" from="374734389#1" to="31912630#1"/>
    <trip id="veh176" type="veh_passenger" depart="526.53" departLane="best" from="169195795#0" to="-195397561#1"/>
    <trip id="veh178" type="veh_passenger" depart="532.52" departLane="best" departSpeed="max" from="122820534#0" to="4773465#2"/>
    <trip id="veh179" type="veh_passenger" depart="535.51" departLane="best" from="340498988#0" to="122820534#1"/>
    <trip id="veh180" type="veh_passenger" depart="538.50" departLane="best" from="112128825#0" to="194962398#1"/>
    <trip id="veh181" type="veh_passenger" depart="541.49" departLane="best" departSpeed="max" from="187091988" to="112128419#2"/>
    <trip id="veh182" type="veh_passenger" depart="544.48" departLane="best" from="-292429056#4" to="195411602#1"/>
    <trip id="veh183" type="veh_passenger" depart="547.48" departLane="best" departSpeed="max" from="753316505#0" to="326116285#3"/>
    <trip id="veh184" type="veh_passenger" depart="550.47" departLane="best" from="6227654#3" to="307098733#1"/>
    <trip id="veh185" type="veh_passenger" depart="553.46" departLane="best" from="111833185#1" to="25086767#1"/>
    <trip id="veh186" type="veh_passenger" depart="556.45" departLane="best" from="-108031933#1" to="109819340#3"/>
    <trip id="veh187" type="veh_passenger" depart="559.44" departLane="best" from="194069450#0" to="289966281"/>
    <trip id="veh188" type="veh_passenger" depart="562.43" departLane="best" from="313039168#1" to="232070355#0"/>
    <trip id="veh189" type="veh_passenger" depart="565.43" departLane="best" from="23121445#2" to="60333311#2"/>
    <trip id="veh190" type="veh_passenger" depart="568.42" departLane="best" from="4610362#1" to="-370359204#1"/>
    <trip id="veh191" type="veh_passenger" depart="571.41" departLane="best" from="-23121445#4" to="24243052#4"/>
    <trip id="veh192" type="veh_passenger" depart="574.40" departLane="best" from="309479676" to="163368988#3"/>
    <trip id="veh193" type="veh_passenger" depart="577.39" departLane="best" from="4612427#1" to="457031289"/>
    <trip id="veh194" type="veh_passenger" depart="580.38" departLane="best" departSpeed="max" from="320462164#0" to="-4613299#0"/>
    <trip id="veh195" type="veh_passenger" depart="583.38" departLane="best" from="-4610608" to="-153692976#0"/>
    <trip id="veh196" type="veh_passenger" depart="586.37" departLane="best" departSpeed="max" from="-495066404" to="234463931#6"/>
    <trip id="veh197" type="veh_passenger" depart="589.36" departLane="best" from="465376252#1" to="-202156991#0"/>
    <trip id="veh198" type="veh_passenger" depart="592.35" departLane="best" from="188386313#1" to="309479676"/>
    <trip id="veh199" type="veh_passenger" depart="595.34" departLane="best" from="-4597320#1" to="340498988#0"/>
    <trip id="veh200" type="veh_passenger" depart="598.33" departLane="best" from="23851917#1" to="-566764345"/>
    <trip id="veh201" type="veh_passenger" depart="601.33" departLane="best" from="31313667#2" to="-111833185#1"/>
    <trip id="veh202" type="veh_passenger" depart="604.32" departLane="best" from="42103020#2" to="4610362#8"/>
    <trip id="veh203" type="veh_passenger" depart="607.31" departLane="best" departSpeed="max" from="-24241762#3" to="19801618#2"/>
    <trip id="veh204" type="veh_passenger" depart="610.30" departLane="best" from="-43231842#0" to="82639450"/>
    <trip id="veh205" type="veh_passenger" depart="613.29" departLane="best" from="24243052#3" to="-173197451#7"/>
    <trip id="veh206" type="veh_passenger" depart="616.28" departLane="best" departSpeed="max" from="-51167934#4" to="4773465#3"/>
    <trip id="veh207" type="veh_passenger" depart="619.28" departLane="best" from="202157002#1" to="4612970#1"/>
    <trip id="veh208" type="veh_passenger" depart="622.27" departLane="best" from="318915601#0" to="84960595"/>
    <trip id="veh209" type="veh_passenger" depart="625.26" departLane="best" from="294104504#1" to="81112790#1"/>
    <trip id="veh210" type="veh_passenger" depart="628.25" departLane="best" from="606078065" to="305093328#1"/>
    <trip id="veh211" type="veh_passenger" depart="631.24" departLane="best" from="340498982#9" to="24240246#3"/>
    <trip id="veh212" type="veh_passenger" depart="634.23" departLane="best" from="4612973#0" to="25086767#1"/>
    <trip id="veh213" type="veh_passenger" depart="637.23" departLane="best" from="61584187#4" to="4402014#3"/>
    <trip id="veh214" type="veh_passenger" depart="640.22" departLane="best" from="23121445#5" to="-755340907"/>
    <trip id="veh215" type="veh_passenger" depart="643.21" departLane="best" from="-505475202#1" to="312176585"/>
    <trip id="veh216" type="veh_passenger" depart="646.20" departLane="best" from="437325055#0" to="246044841#0"/>
    <trip id="veh217" type="veh_passenger" depart="649.19" departLane="best" from="309147331#0" to="-874528353#1"/>
    <trip id="veh218" type="veh_passenger" depart="652.18" departLane="best" from="-22954356#3" to="109819340#3"/>
    <trip id="veh219" type="veh_passenger" depart="655.18" departLane="best" from="-7917219#2" to="154043350#1"/>
    <trip id="veh220" type="veh_passenger" depart="658.17" departLane="best" departSpeed="max" from="24914141#0" to="-31313667#2"/>
    <trip id="veh222" type="veh_passenger" depart="664.15" departLane="best" from="339201177#4" to="-194962375#2"/>
    <trip id="veh223" type="veh_passenger" depart="667.14" departLane="best" from="188044903#0" to="24992424#3"/>
    <trip id="veh224" type="veh_passenger" depart="670.13" departLane="best" from="188386313#2" to="-4610610#2"/>
    <trip id="veh225" type="veh_passenger" depart="673.13" departLane="best" from="189133036#3" to="60333317#1"/>
    <trip id="veh226" type="veh_passenger" depart="676.12" departLane="best" from="292429056#0" to="340498988#0"/>
    <trip id="veh227" type="veh_passenger" depart="679.11" departLane="best" from="478432725" to="4610355#3"/>
    <trip id="veh228" type="veh_passenger" depart="682.10" departLane="best" from="171826985#3" to="-111833185#1"/>
    <trip id="veh229" type="veh_passenger" depart="685.09" departLane="best" from="165415464#0" to="4588211#1"/>
    <trip id="veh230" type="veh_passenger" depart="688.08" departLane="best" from="4773029#1" to="824274187#0"/>
    <trip id="veh232" type="veh_passenger" depart="694.07" departLane="best" from="-4613299#1" to="-4612970#0"/>
    <trip id="veh233" type="veh_passenger" depart="697.06" departLane="best" from="195397561#2" to="-156364570#0"/>
    <trip id="veh234" type="veh_passenger" depart="700.05" departLane="best" from="153698415#2" to="328426193#0"/>
    <trip id="veh235" type="veh_passenger" depart="703.04" departLane="best" from="187103791" to="-36892597#1"/>
    <trip id="veh236" type="veh_passenger" depart="706.03" departLane="best" from="22954356#3" to="-30705211#0"/>
    <trip id="veh237" type="veh_passenger" depart="709.03" departLane="best" from="30721660#2" to="-153698415#2"/>
    <trip id="veh238" type="veh_passenger" depart="712.02" departLane="best" from="177372522" to="28016312#0"/>
    <trip id="veh239" type="veh_passenger" depart="715.01" departLane="best" from="-15973619#1" to="312357351#1"/>
    <trip id="veh240" type="veh_passenger" depart="718.00" departLane="best" from="-310176513#9" to="232070355#0"/>
    <trip id="veh241" type="veh_passenger" depart="720.99" departLane="best" from="-4612965" to="158023913#0"/>
    <trip id="veh242" type="veh_passenger" depart="723.98" departLane="best" from="437325047#0" to="176043807#7"/>
    <trip id="veh243" type="veh_passenger" depart="726.98" departLane="best" from="42103020#2" to="465376243#1"/>
    <trip id="veh244" type="veh_passenger" depart="729.97" departLane="best" from="-534588621#0" to="-22972473#2"/>
    <trip id="veh245" type="veh_passenger" depart="732.96" departLane="best" from="-153692976#0" to="24914141#7"/>
    <trip id="veh246" type="veh_passenger" depart="735.95" departLane="best" from="930343902" to="168943642#1"/>
    <trip id="veh247" type="veh_passenger" depart="738.94" departLane="best" from="312533962#3" to="4611696#5"/>
    <trip id="veh248" type="veh_passenger" depart="741.93" departLane="best" departSpeed="max" from="312651888#0" to="4588217"/>
    <trip id="veh249" type="veh_passenger" depart="744.93" departLane="best" from="7917219#1" to="-4588219#0"/>
    <trip id="veh250" type="veh_passenger" depart="747.92" departLane="best" from="-153698387#1" to="-326116285#1"/>
    <trip id="veh251" type="veh_passenger" depart="750.91" departLane="best" from="-292429056#2" to="31912630#0"/>
    <trip id="veh252" type="veh_passenger" depart="753.90" departLane="best" from="276701303#1" to="-4612968#3"/>
    <trip id="veh253" type="veh_passenger" depart="756.89" departLane="best" departSpeed="max" from="330460453#0" to="4610362#2"/>
    <trip id="veh254" type="veh_passenger" depart="759.88" departLane="best" from="-35578576#2" to="301733776"/>
    <trip id="veh255" type="veh_passenger" depart="762.88" departLane="best" from="4067932#1" to="-25302636#1"/>
    <trip id="veh256" type="veh_passenger" depart="765.87" departLane="best" from="-24241797#2" to="-153698387#1"/>
    <trip id="veh257" type="veh_passenger" depart="768.86" departLane="best" from="120675240#4" to="326116285#3"/>
    <trip id="veh258" type="veh_passenger" depart="771.85" departLane="best" from="82639450" to="189133035#0"/>
    <trip id="veh259" type="veh_passenger" depart="774.84" departLane="best" from="340498982#4" to="-22036538#0"/>
    <trip id="veh260" type="veh_passenger" depart="777.83" departLane="best" departSpeed="max" from="328426208#0" to="309300320#0"/>
    <trip id="veh261" type="veh_passenger" depart="780.83" departLane="best" departSpeed="max" from="-23813206#2" to="4610476#2"/>
    <trip id="veh262" type="veh_passenger" depart="783.82" departLane="best" from="465376254" to="301241483#3"/>
    <trip id="veh263" type="veh_passenger" depart="786.81" departLane="best" departSpeed="max" from="-25294729#1" to="840860363#1"/>