<?xml version="1.0" encoding="UTF-8"?>

<!-- generated on Thu Apr 15 19:02:52 2021 by Eclipse SUMO polyconvert Version 1.7.0
<configuration xmlns:xsi="http://www.w3.org/2001/XMLSchema-instance" xsi:noNamespaceSchemaLocation="http://sumo.dlr.de/xsd/polyconvertConfiguration.xsd">

    <input>
        <net-file value="osm.net.xml"/>
        <osm-files value="osm_bbox.osm.xml"/>
        <osm.keep-full-type value="true"/>
        <type-file value="/usr/local/share/sumo/data/typemap/osmPolyconvert.typ.xml"/>
    </input>

    <output>
        <output-file value="osm.poly.xml"/>
    </output>

    <processing>
        <poi-layer-offset value="5"/>
    </processing>

    <report>
        <verbose value="true"/>
    </report>

</configuration>
-->

<additional xmlns:xsi="http://www.w3.org/2001/XMLSchema-instance" xsi:noNamespaceSchemaLocation="http://sumo.dlr.de/xsd/additional_file.xsd">
    <location netOffset="-389610.86,-5819107.27" convBoundary="-622.69,-3726.41,5672.85,4151.92" origBoundary="13.365446,52.477280,13.456601,52.548335" projParameter="+proj=utm +zone=33 +ellps=WGS84 +datum=WGS84 +units=m +no_defs"/>

    <poly id="100575040" type="leisure.park" color="207,245,201" fill="1" layer="-2.00" shape="1732.806766,1514.568669 1731.913400,1514.377068 1725.908861,1512.941317 1719.957356,1511.448758 1726.994440,1484.786577 1735.057805,1456.043026 1712.097144,1450.254315 1713.976242,1438.283791 1705.326132,1436.917904 1700.100830,1438.792048 1695.373612,1441.701139 1697.999575,1447.785304 1690.052986,1450.899392 1683.796074,1453.386218 1681.446025,1447.807806 1671.193460,1452.831433 1672.762669,1454.421228 1672.324357,1456.689869 1670.295135,1457.614005 1669.695391,1460.865463 1663.414096,1458.890676 1663.682952,1457.549390 1652.054850,1460.533860 1643.363663,1462.818860 1642.604531,1464.393588 1638.968036,1465.375687 1636.928034,1464.285974 1633.010260,1451.075459 1633.670140,1450.838251 1632.834890,1447.763319 1631.198969,1443.170555 1619.811197,1448.419802 1607.240851,1454.207218 1604.092569,1455.779390 1601.721536,1459.036825 1604.979969,1464.561638 1599.687545,1467.383232 1600.314783,1468.426423 1597.708732,1476.685392 1595.236997,1484.574167 1593.163491,1491.141034 1589.191062,1489.526767 1584.768734,1492.406939 1602.642656,1509.357805 1608.294730,1510.812365 1616.193987,1512.906925 1623.053948,1514.657371 1628.822074,1516.142759 1633.819428,1517.456102 1639.601362,1518.952323 1656.046248,1523.216224 1672.698685,1527.353167 1689.501322,1531.531342 1695.426173,1533.046710 1700.750346,1534.408504 1706.490793,1535.872341 1713.118557,1537.561299 1718.156567,1538.873824 1724.687868,1540.498172 1725.752798,1540.774986 1727.610848,1533.667707 1732.806766,1514.568669"/>
    <poly id="100575042" type="building.residential" color="255,230,230" fill="1" layer="-1.00" shape="1700.880262,1557.996204 1706.490793,1535.872341 1700.750346,1534.408504 1700.135158,1536.658814 1700.579559,1536.804736 1699.202306,1542.332358 1699.629199,1542.912647 1698.928390,1543.751647 1697.629602,1543.335371 1697.767488,1542.820440 1693.978556,1541.825164 1693.839319,1542.584934 1692.105382,1542.133809 1691.912827,1541.103213 1692.807906,1540.760642 1694.078588,1535.324406 1694.795575,1535.519915 1695.426173,1533.046710 1689.501322,1531.531342 1687.380759,1539.957525 1683.964494,1553.609080 1700.880262,1557.996204"/>
    <poly id="100950874" type="building.commercial" color="255,230,230" fill="1" layer="-1.00" shape="2037.461041,1221.660460 2018.131240,1213.119334 2013.986371,1202.795624 2025.719327,1182.428409 2039.074252,1189.655171 2037.461041,1221.660460"/>
    <poly id="100950876" type="building.commercial" color="255,230,230" fill="1" layer="-1.00" shape="2075.798570,1163.427352 2062.895787,1187.381144 2062.797971,1230.213434 2062.866465,1235.764591 2064.235520,1239.662349 2066.191247,1243.079772 2068.828481,1246.315206 2073.823956,1250.299668 2077.001180,1251.865151 2096.813318,1259.516755 2128.638451,1191.913994 2075.798570,1163.427352"/>
    <poly id="100950877" type="building.commercial" color="255,230,230" fill="1" layer="-1.00" shape="2107.648103,1198.520499 2087.953627,1240.395175 2081.701735,1238.218902 2079.025302,1236.586701 2077.421583,1233.740124 2076.370629,1228.266335 2078.079909,1196.603899 2103.480749,1196.687572 2107.648103,1198.520499"/>
    <poly id="100950878" type="building.commercial" color="255,230,230" fill="1" layer="-1.00" shape="2046.433269,1239.722344 2051.754207,1225.895424 2053.172733,1193.983471 2053.093155,1190.079444 2051.550572,1185.395468 2049.063956,1181.299884 2045.111305,1177.514925 2041.161743,1175.710614 2019.671688,1164.335223 2000.417291,1198.466846 1998.644102,1204.526126 1998.778157,1210.276130 2000.469703,1216.781721 2007.324201,1224.408209 2046.433269,1239.722344"/>
    <poly id="101309884" type="landuse.commercial" color="209,209,204" fill="1" layer="-3.00" shape="2725.713322,1541.531368 2674.781286,1569.813859 2673.917021,1570.634055 2673.709063,1571.361921 2674.044912,1572.745478 2705.390008,1640.768697 2723.805920,1681.034936 2804.843293,1718.533945 2845.344626,1697.737020 2846.582776,1693.236552 2784.192229,1615.434765 2737.149026,1558.182691 2725.713322,1541.531368"/>
    <poly id="101309885" type="building.commercial" color="255,230,230" fill="1" layer="-1.00" shape="2783.090181,1630.759363 2776.641648,1635.964117 2771.486901,1640.127837 2807.941381,1685.016463 2812.822626,1681.070212 2831.328525,1703.853469 2843.171566,1694.279573 2821.317223,1667.363619 2816.943710,1661.984948 2806.236219,1648.800376 2801.108108,1652.941225 2783.090181,1630.759363"/>
    <poly id="101309886" type="building.apartments" color="255,230,230" fill="1" layer="-1.00" shape="2969.638141,1620.721187 2985.354043,1608.848311 2978.461898,1599.719131 2976.630417,1597.288994 2974.708307,1594.749571 2977.518847,1592.618197 2970.941691,1583.927218 2953.634557,1561.016995 2942.352520,1546.075461 2933.119269,1553.054745 2937.075517,1558.286889 2940.563582,1562.906167 2950.936622,1576.632485 2954.166345,1580.923614 2970.207996,1602.147959 2971.948607,1604.457683 2962.508310,1611.586116 2956.299581,1616.284625 2963.282374,1625.523062 2969.638141,1620.721187"/>
    <poly id="102864701" type="building.residential" color="255,230,230" fill="1" layer="-1.00" shape="2216.943820,1579.027682 2207.762697,1567.123694 2207.511112,1566.795424 2210.093899,1564.813289 2210.345484,1565.141559 2210.892903,1564.728871 2210.654885,1564.400302 2213.224107,1562.418468 2213.475692,1562.746738 2214.003251,1562.356745 2213.751420,1562.017353 2216.320645,1560.035520 2216.586289,1560.385735 2217.140246,1559.961776 2216.874602,1559.611562 2219.450859,1557.640704 2219.716502,1557.990918 2221.552543,1556.615048 2230.432068,1568.692637 2222.970728,1574.421250 2222.824339,1574.246443 2221.176038,1575.518017 2221.308613,1575.682002 2219.126216,1577.354842 2216.943820,1579.027682"/>
    <poly id="102864702" type="building.residential" color="255,230,230" fill="1" layer="-1.00" shape="2210.976816,1605.698817 2217.350783,1600.828775 2208.874017,1589.777177 2208.099888,1590.372915 2205.725124,1587.331911 2206.079007,1587.068158 2206.232426,1587.253937 2208.107679,1585.810430 2207.988671,1585.646145 2209.636720,1584.363444 2209.783355,1584.549373 2216.943820,1579.027682 2207.762697,1567.123694 2191.464020,1579.579508 2210.976816,1605.698817"/>
    <poly id="102979498" type="landuse.civic_admin" color="194,194,130" fill="1" layer="-3.00" shape="497.192988,718.980672 492.840410,718.622093 388.338170,709.439633 377.061024,708.457737 332.584133,704.549599 296.684224,701.394926 279.606165,696.025785 265.524238,745.415679 264.265790,749.828301 261.201630,760.579822 249.048161,772.848805 95.164079,776.445215 99.398088,944.267608 93.224342,944.417767 86.622914,944.566439 78.949769,944.750386 67.694098,945.003915 57.429231,945.246277 42.372425,945.507603 30.589560,945.862118 31.014859,964.736337 31.319485,976.146552 32.094702,1005.428468 33.722849,1067.139709 34.262146,1087.457972 34.484284,1095.809913 53.904630,1113.599608 86.738865,1140.490187 138.679810,1183.341970 149.649010,1192.097383 155.593735,1195.657980 159.940471,1198.186288 169.944142,1202.045012 179.476811,1184.070585 194.230360,1155.885832 199.196357,1143.400039 202.433958,1116.542708 205.064364,1096.787417 274.338346,1109.350429 323.899494,1108.291950 367.101471,1106.976233 369.688319,1107.007140 454.162995,1104.609378 461.100629,1104.631690 470.542948,1104.653434 468.001811,1118.453209 478.030848,1118.306009 521.392301,1121.683970 523.056535,1099.046235 526.327312,1099.306691 543.008336,1100.668435 570.763559,1102.783387 567.994497,1092.507834 558.314050,1057.049466 548.647441,1019.187217 541.474184,1021.072901 541.847287,1022.878350 524.660243,1027.414516 486.694386,1020.710629 478.141629,1021.013844 480.435823,994.088910 482.067316,974.534275 483.302843,959.717808 483.633589,956.004855 482.806261,948.478827 488.808807,886.551904 489.569867,880.536987 490.449478,871.637330 492.182352,852.058175 495.135457,818.185909 495.654035,812.254328 487.891628,811.493774 497.192988,718.980672"/>
    <poly id="104191061" type="landuse.grass" color="194,194,130" fill="1" layer="-3.00" shape="440.447250,1592.935054 452.340920,1593.958821 453.182430,1584.281054 450.761682,1584.079466 450.912172,1582.317906 441.439222,1581.495723 440.447250,1592.935054"/>
    <poly id="104191066" type="building.yes" color="255,230,230" fill="1" layer="-1.00" shape="657.766474,1553.975921 668.128293,1539.945359 658.073850,1532.559305 647.711794,1546.578767 657.766474,1553.975921"/>
    <poly id="104191068" type="building.yes" color="255,230,230" fill="1" layer="-1.00" shape="680.089310,1538.520075 685.563417,1531.108777 672.479560,1521.498257 667.005211,1528.898447 673.022852,1533.325973 680.089310,1538.520075"/>
    <poly id="104191069" type="landuse.grass" color="194,194,130" fill="1" layer="-3.00" shape="442.406952,1576.533279 451.655548,1577.338246 451.746649,1576.256810 454.480451,1576.495881 455.484780,1565.000639 443.509136,1563.956446 442.406952,1576.533279"/>
    <poly id="104191071" type="building.commercial" color="255,230,230" fill="1" layer="-1.00" shape="529.500635,1337.580166 522.949261,1336.002349 515.790607,1334.282377 516.428116,1330.629308 516.578753,1329.780221 518.953523,1316.128860 523.438118,1317.252294 524.304188,1317.433163 524.384646,1317.086398 540.654215,1321.016715 558.679486,1325.452966 554.335758,1343.621810 542.439555,1340.694991 533.496458,1378.941295 520.559627,1375.915472 529.500635,1337.580166"/>
    <poly id="104191072" type="building.apartments" color="255,230,230" fill="1" layer="-1.00" shape="455.817216,1385.413836 456.865733,1372.860473 457.914008,1360.295988 471.236127,1361.432414 469.935768,1374.258491 486.160207,1378.300912 488.849579,1378.974984 486.513640,1392.536472 483.791353,1391.907651 481.130372,1391.288583 455.817216,1385.413836"/>
    <poly id="104191078" type="building.yes" color="255,230,230" fill="1" layer="-1.00" shape="668.128293,1539.945359 673.022852,1533.325973 667.005211,1528.898447 664.857746,1531.806390 660.820691,1528.836732 658.073850,1532.559305 668.128293,1539.945359"/>
    <poly id="104287992" type="building.yes" color="255,230,230" fill="1" layer="-1.00" shape="641.666782,1549.106709 652.194673,1557.327824 655.553387,1553.046277 645.025493,1544.825154 641.666782,1549.106709"/>
    <poly id="104287993" type="building.yes" color="255,230,230" fill="1" layer="-1.00" shape="735.304893,1569.820708 744.010510,1573.053097 748.152785,1561.932783 739.447152,1558.700386 735.304893,1569.820708"/>
    <poly id="104287994" type="building.yes" color="255,230,230" fill="1" layer="-1.00" shape="758.534139,1549.370841 767.712665,1542.499853 760.787316,1533.296494 751.608782,1540.167494 758.534139,1549.370841"/>
    <poly id="104287997" type="building.university" color="255,230,230" fill="1" layer="-1.00" shape="800.235094,1674.035800 811.762524,1674.478858 812.652169,1674.503460 813.585222,1649.779070 801.168333,1649.322529 800.235094,1674.035800"/>
    <poly id="104288001" type="building.yes" color="255,230,230" fill="1" layer="-1.00" shape="760.887632,1531.714113 768.568289,1541.913185 772.379826,1539.057059 764.699173,1528.857981 760.887632,1531.714113"/>
    <poly id="104288005" type="building.yes" color="255,230,230" fill="1" layer="-1.00" shape="744.355785,1544.825492 760.783453,1532.517641 753.550377,1522.909455 737.122443,1535.206208 744.355785,1544.825492"/>
    <poly id="104288007" type="building.yes" color="255,230,230" fill="1" layer="-1.00" shape="788.299142,1667.470545 788.539736,1663.058587 782.288115,1662.720034 782.047527,1667.131993 788.299142,1667.470545"/>
    <poly id="104288008" type="building.yes" color="255,230,230" fill="1" layer="-1.00" shape="732.925690,1576.928957 741.692907,1579.881770 743.819201,1573.602639 735.051975,1570.649822 732.925690,1576.928957"/>
    <poly id="104314730" type="building.yes" color="255,230,230" fill="1" layer="-1.00" shape="586.226223,1514.774279 592.518723,1504.818530 622.258922,1523.525125 610.866638,1541.540358 581.133282,1522.833680 573.712091,1518.170675 560.624985,1509.940354 565.717907,1501.880932 586.226223,1514.774279"/>
    <poly id="104314731" type="building.apartments" color="255,230,230" fill="1" layer="-1.00" shape="444.141793,1525.329003 442.655797,1542.576973 450.324628,1543.150345 453.071267,1543.355744 457.007562,1543.645713 457.863575,1536.426852 457.101544,1536.343811 457.588359,1531.726000 460.105853,1532.003314 459.977625,1532.640473 463.984264,1533.040146 463.950552,1533.352480 469.993325,1533.750960 469.790048,1537.394291 471.936969,1537.490758 472.141496,1533.903038 473.629642,1533.980910 476.164893,1536.561274 475.280797,1544.949173 491.732225,1546.126672 492.861843,1534.161265 497.001407,1534.435577 496.931689,1535.260594 499.798440,1535.374301 501.895200,1536.562425 505.228773,1529.955639 495.144944,1529.135930 444.141793,1525.329003"/>
    <poly id="104314732" type="building.yes" color="255,230,230" fill="1" layer="-1.00" shape="597.425909,1663.734785 605.014368,1664.365832 605.795803,1655.023279 598.214113,1654.392078 597.425909,1663.734785"/>
    <poly id="104314733" type="building.yes" color="255,230,230" fill="1" layer="-1.00" shape="634.922877,1479.876540 635.424506,1477.728775 642.228877,1448.510672 659.143125,1452.460299 656.708923,1461.049805 651.819702,1460.035472 647.796386,1476.761573 652.205432,1477.853429 650.255606,1482.615277 634.922877,1479.876540"/>
    <poly id="104314734" type="building.yes" color="255,230,230" fill="1" layer="-1.00" shape="698.912243,1482.559967 708.808890,1486.232984 705.748074,1494.424773 695.858225,1490.751611 698.912243,1482.559967"/>
    <poly id="104314735" type="building.yes" color="255,230,230" fill="1" layer="-1.00" shape="597.862798,1671.414246 601.492220,1671.644442 601.939350,1664.646206 598.309922,1664.416009 597.862798,1671.414246"/>
    <poly id="104314736" type="building.yes" color="255,230,230" fill="1" layer="-1.00" shape="570.772062,1702.111143 582.231991,1706.505517 584.290286,1701.140304 575.301911,1697.703117 574.935952,1698.634926 572.471670,1697.699827 570.772062,1702.111143"/>
    <poly id="104314738" type="building.yes" color="255,230,230" fill="1" layer="-1.00" shape="703.157873,1470.903171 705.792447,1463.377463 683.671525,1458.175615 679.363322,1470.067513 685.175823,1471.395020 701.552534,1475.290066 703.157873,1470.903171"/>
    <poly id="104314739" type="building.yes" color="255,230,230" fill="1" layer="-1.00" shape="597.809491,1653.599955 607.676213,1654.435860 608.820145,1640.979051 601.482894,1640.353492 598.953395,1640.143143 597.809491,1653.599955"/>
    <poly id="104392614" type="building.yes" color="255,230,230" fill="1" layer="-1.00" shape="836.139632,1262.419860 838.711557,1263.608626 842.303914,1255.494067 863.512262,1265.991593 854.433500,1285.545717 832.591917,1275.563145 830.843051,1274.756566 836.139632,1262.419860"/>
    <poly id="104393529" type="building.yes" color="255,230,230" fill="1" layer="-1.00" shape="931.324003,1415.578333 907.588454,1409.799544 903.492583,1426.660556 902.049516,1432.545989 905.961291,1434.773088 907.693490,1432.408671 909.039599,1426.436386 919.570356,1429.027391 916.831269,1440.394362 922.313098,1444.845296 928.323716,1427.407370 931.324003,1415.578333"/>
    <poly id="104393530" type="building.yes" color="255,230,230" fill="1" layer="-1.00" shape="869.422339,1454.674170 873.420716,1438.316050 879.237920,1439.855108 883.134430,1421.974782 887.176780,1404.847883 873.964433,1401.627000 868.532060,1400.301894 865.001592,1415.125056 864.703575,1416.366896 869.986685,1417.695335 873.815858,1418.655699 876.525748,1419.340650 874.383106,1427.934640 874.090131,1429.098473 873.523288,1431.370073 866.986230,1429.813739 865.239346,1429.396575 856.532554,1427.332399 856.060015,1429.268061 855.152528,1429.054678 854.367650,1428.860809 852.634332,1428.443345 848.721965,1444.699410 852.244852,1445.622098 851.126004,1450.220610 869.422339,1454.674170"/>
    <poly id="104393531" type="building.yes" color="255,230,230" fill="1" layer="-1.00" shape="851.391490,1497.284843 853.057293,1499.539886 847.277228,1504.209288 846.270749,1502.907607 842.493558,1505.785161 809.415306,1463.138369 812.876094,1460.679596 820.259051,1455.451287 822.784501,1458.510535 828.853708,1465.852554 835.708028,1460.658351 834.047429,1458.636878 839.937321,1459.784793 843.641870,1460.636644 886.709712,1470.767675 851.391490,1497.284843"/>
    <poly id="104393532" type="building.yes" color="255,230,230" fill="1" layer="-1.00" shape="918.575326,1454.954907 958.017626,1429.202916 959.392395,1422.384303 931.324003,1415.578333 928.323716,1427.407370 943.580577,1431.005552 922.313098,1444.845296 916.865035,1452.834370 918.575326,1454.954907"/>
    <poly id="104393533" type="building.yes" color="255,230,230" fill="1" layer="-1.00" shape="802.584847,1423.298260 790.994282,1420.364010 787.352471,1436.569564 774.331825,1433.422554 779.406440,1415.126291 772.210847,1413.262119 788.296518,1380.798637 809.780211,1386.026352 806.660620,1400.094811 792.888180,1396.719763 789.456336,1410.784096 805.085423,1414.629458 802.584847,1423.298260"/>
    <poly id="104393534" type="building.yes" color="255,230,230" fill="1" layer="-1.00" shape="907.588454,1409.799544 887.176780,1404.847883 883.134430,1421.974782 888.971642,1422.890253 890.143491,1418.535375 898.545254,1420.617558 895.833096,1431.972813 895.054755,1431.767663 893.864972,1436.534665 885.652617,1434.726448 884.361060,1440.708648 890.270993,1442.145495 888.271616,1450.469211 887.206442,1455.344706 890.345186,1456.086840 891.760571,1451.392685 894.567998,1445.209676 897.066756,1440.702724 899.658048,1436.994900 902.049516,1432.545989 903.492583,1426.660556 907.588454,1409.799544"/>
    <poly id="104665576" type="building.apartments" color="255,230,230" fill="1" layer="-1.00" shape="482.162017,1420.620377 476.510622,1419.823621 474.169706,1433.463123 479.592429,1434.354030 477.737894,1444.866849 476.916139,1449.380897 480.045180,1449.989455 479.832707,1451.106997 482.654723,1451.644555 481.443936,1458.481901 487.655117,1462.448627 488.454986,1458.168755 489.769402,1457.460463 494.314273,1457.948233 497.150979,1445.833242 498.420128,1440.385557 487.163671,1438.434890 489.751882,1424.622929 501.492184,1427.263792 504.545404,1414.209219 484.067600,1409.961754 482.162017,1420.620377"/>
    <poly id="104665577" type="building.apartments" color="255,230,230" fill="1" layer="-1.00" shape="484.067600,1409.961754 482.162017,1420.620377 476.510622,1419.823621 464.125434,1418.087512 462.273146,1435.955718 451.456700,1435.163666 453.242027,1416.128547 454.440566,1403.304749 484.067600,1409.961754"/>
    <poly id="104786904" type="natural.grassland" color="140,196,107" fill="1" layer="-4.00" shape="1397.757685,860.008625 1403.094925,798.164815 1383.698166,796.504473 1378.354382,858.348459 1397.757685,860.008625"/>
    <poly id="104786906" type="building.yes" color="255,230,230" fill="1" layer="-1.00" shape="1411.949372,964.548626 1475.273616,976.137064 1468.268968,986.229827 1464.581052,991.018840 1460.107803,996.815684 1458.201254,999.295043 1444.102716,998.373478 1432.723173,997.625143 1433.323936,990.456702 1454.831131,992.125908 1456.161583,985.108156 1416.302808,978.383569 1414.785980,979.463319 1412.936913,988.796047 1413.967751,989.974895 1413.766135,990.980870 1412.919699,991.378044 1412.698480,996.078833 1409.211341,995.855982 1405.907384,995.629057 1406.308632,993.528130 1410.167303,974.146927 1411.776148,964.085119 1411.949372,964.548626"/>
    <poly id="104786907" type="building.residential" color="255,230,230" fill="1" layer="-1.00" shape="1440.722308,946.193263 1439.447129,959.051803 1399.757191,951.689311 1402.855836,919.505970 1416.483896,920.627062 1417.679904,906.957959 1430.987631,908.019455 1429.850341,920.363058 1422.032541,919.535502 1420.747831,933.184322 1428.643314,933.843232 1428.182180,939.050101 1427.717519,945.013728 1440.722308,946.193263"/>
    <poly id="104786910" type="building.yes" color="255,230,230" fill="1" layer="-1.00" shape="1518.435663,972.985247 1531.107105,956.423849 1515.011510,943.840191 1515.717433,942.923159 1514.936929,942.317362 1518.011272,938.320964 1518.722447,938.861537 1519.665942,937.638779 1523.622986,940.677684 1524.381706,939.692715 1541.163162,952.594989 1548.422771,943.275606 1558.476549,946.368222 1538.306364,972.487928 1530.818261,982.213002 1518.435663,972.985247"/>
    <poly id="104786915" type="building.yes" color="255,230,230" fill="1" layer="-1.00" shape="1515.948238,966.130280 1502.420559,963.715878 1501.303646,969.961060 1514.806149,972.465039 1515.948238,966.130280"/>
    <poly id="104786916" type="building.yes" color="255,230,230" fill="1" layer="-1.00" shape="1544.241704,898.390628 1539.401520,915.478969 1577.482191,926.483699 1582.283125,912.512009 1579.617959,911.402818 1577.063661,909.478849 1574.361447,907.313359 1570.661664,905.770928 1556.350964,901.726881 1544.241704,898.390628"/>
    <poly id="104991245" type="building.yes" color="255,230,230" fill="1" layer="-1.00" shape="1423.374732,1281.565900 1436.177457,1277.364106 1438.041383,1283.042248 1438.479381,1282.898972 1443.910748,1299.436227 1444.739748,1299.172976 1448.882213,1311.777467 1448.013005,1312.063867 1453.452086,1328.645471 1439.719472,1333.146104 1436.930887,1324.650983 1436.338097,1324.853342 1433.425760,1315.982636 1434.018551,1315.780277 1430.421482,1304.810554 1429.875683,1304.989613 1426.999472,1296.218256 1427.612618,1296.015443 1426.185676,1291.674026 1424.824243,1287.531451 1425.275561,1287.376749 1423.374732,1281.565900"/>
    <poly id="104991246" type="building.yes" color="255,230,230" fill="1" layer="-1.00" shape="1326.539163,1325.517071 1325.256640,1321.873507 1340.476434,1316.493731 1341.770534,1320.048019 1326.539163,1325.517071"/>
    <poly id="105187864" type="building.yes" color="255,230,230" fill="1" layer="-1.00" shape="906.877860,911.350566 901.336193,910.929192 895.950074,910.482091 893.964234,910.315062 892.155291,910.166333 889.496279,909.947590 890.175161,901.753562 891.097902,889.893074 881.200091,888.945965 880.144168,900.920710 879.566357,907.866179 879.038171,914.298665 878.610294,919.449223 878.486826,920.909711 878.218472,924.087103 878.058454,926.038026 877.892398,928.022467 877.408189,933.385712 887.909245,934.297068 888.338194,928.890550 888.488127,927.095640 888.680402,924.765654 888.926349,921.800191 889.093653,919.871360 890.739264,920.001484 892.827119,920.177359 894.948897,920.352476 900.511654,920.806754 906.070680,921.094207 906.877860,911.350566"/>
    <poly id="105187864#1" type="landuse.commercial" color="209,209,204" fill="1" layer="-3.00" shape="906.877860,911.350566 901.336193,910.929192 895.950074,910.482091 893.964234,910.315062 892.155291,910.166333 889.496279,909.947590 890.175161,901.753562 891.097902,889.893074 881.200091,888.945965 880.144168,900.920710 879.566357,907.866179 879.038171,914.298665 878.610294,919.449223 878.486826,920.909711 878.218472,924.087103 878.058454,926.038026 877.892398,928.022467 877.408189,933.385712 887.909245,934.297068 888.338194,928.890550 888.488127,927.095640 888.680402,924.765654 888.926349,921.800191 889.093653,919.871360 890.739264,920.001484 892.827119,920.177359 894.948897,920.352476 900.511654,920.806754 906.070680,921.094207 906.877860,911.350566"/>
    <poly id="105187865" type="building.office" color="255,230,230" fill="1" layer="-1.00" shape="936.481677,845.491798 1034.900463,852.996692 1033.690748,864.485206 1027.830158,920.310078 1025.866774,941.819207 1023.892079,963.428739 886.153420,952.007093 876.006941,951.165708 840.086162,948.185640 847.136095,871.580722 882.502147,874.317327 881.763949,882.590576 856.650159,880.559410 854.554713,905.843872 879.566357,907.866179 879.038171,914.298665 878.610294,919.449223 856.680357,917.725215 854.588986,942.887184 876.473061,944.690098 877.408189,933.385712 887.909245,934.297068 886.949014,945.390586 902.419028,946.613729 903.539784,932.679067 914.645161,933.599225 915.077372,928.337297 937.090884,930.159845 936.288446,939.814352 1000.172556,945.085926 1004.399168,894.227061 1015.273181,895.119234 1016.386341,881.741164 966.735089,877.642453 967.655062,866.560986 952.931883,865.354325 950.861653,890.270951 932.887760,888.792032 935.701384,854.923254 936.481677,845.491798"/>
    <poly id="105187865#1" type="landuse.commercial" color="209,209,204" fill="1" layer="-3.00" shape="936.481677,845.491798 1034.900463,852.996692 1033.690748,864.485206 1027.830158,920.310078 1025.866774,941.819207 1023.892079,963.428739 886.153420,952.007093 876.006941,951.165708 840.086162,948.185640 847.136095,871.580722 882.502147,874.317327 881.763949,882.590576 856.650159,880.559410 854.554713,905.843872 879.566357,907.866179 879.038171,914.298665 878.610294,919.449223 856.680357,917.725215 854.588986,942.887184 876.473061,944.690098 877.408189,933.385712 887.909245,934.297068 886.949014,945.390586 902.419028,946.613729 903.539784,932.679067 914.645161,933.599225 915.077372,928.337297 937.090884,930.159845 936.288446,939.814352 1000.172556,945.085926 1004.399168,894.227061 1015.273181,895.119234 1016.386341,881.741164 966.735089,877.642453 967.655062,866.560986 952.931883,865.354325 950.861653,890.270951 932.887760,888.792032 935.701384,854.923254 936.481677,845.491798"/>
    <poly id="105187866" type="building.yes" color="255,230,230" fill="1" layer="-1.00" shape="950.861653,890.270951 948.422724,919.646890 938.038483,918.799560 937.090884,930.159845 915.077372,928.337297 915.618675,921.882268 906.070680,921.094207 906.877860,911.350566 907.631867,902.264648 931.603954,904.243692 932.887760,888.792032 950.861653,890.270951"/>
    <poly id="105187866#1" type="landuse.commercial" color="209,209,204" fill="1" layer="-3.00" shape="950.861653,890.270951 948.422724,919.646890 938.038483,918.799560 937.090884,930.159845 915.077372,928.337297 915.618675,921.882268 906.070680,921.094207 906.877860,911.350566 907.631867,902.264648 931.603954,904.243692 932.887760,888.792032 950.861653,890.270951"/>
    <poly id="105210562" type="building.residential" color="255,230,230" fill="1" layer="-1.00" shape="2065.969624,1661.682833 2068.764785,1668.998599 2065.784828,1668.975503 2058.271583,1669.275256 2052.466546,1672.241233 2050.899103,1668.881994 2065.969624,1661.682833"/>
    <poly id="105210571" type="building.residential" color="255,230,230" fill="1" layer="-1.00" shape="2068.764785,1668.998599 2065.969624,1661.682833 2079.312305,1655.222978 2080.710040,1656.126779 2081.588039,1656.852908 2079.350917,1669.854926 2068.764785,1668.998599"/>
    <poly id="105210597" type="building.residential" color="255,230,230" fill="1" layer="-1.00" shape="2134.141573,1601.710731 2171.631924,1570.959909 2162.785791,1562.242217 2138.564981,1581.371834 2135.100887,1577.564886 2129.497211,1582.584920 2127.974205,1580.927198 2122.074805,1585.464165 2122.844373,1586.504271 2126.384381,1591.288762 2134.141573,1601.710731"/>
    <poly id="105210608" type="building.residential" color="255,230,230" fill="1" layer="-1.00" shape="2063.988898,1682.590916 2070.184849,1682.876693 2077.167409,1683.745968 2078.663910,1674.387930 2079.350917,1669.854926 2068.764785,1668.998599 2065.784828,1668.975503 2065.937629,1675.882367 2065.254177,1676.587398 2065.148737,1678.570445 2063.705422,1678.980715 2062.390424,1676.294671 2060.985735,1676.303493 2060.761418,1675.674182 2059.970481,1675.202066 2058.827644,1675.082692 2058.203556,1675.096500 2057.523690,1675.656794 2057.536240,1676.224025 2047.925794,1676.214111 2047.609110,1682.452578 2059.325398,1682.549432 2063.988898,1682.590916"/>
    <poly id="105210610" type="building.residential" color="255,230,230" fill="1" layer="-1.00" shape="2102.489668,1607.351267 2107.368832,1622.666224 2134.141573,1601.710731 2126.384381,1591.288762 2114.905130,1599.465435 2102.489668,1607.351267"/>
    <poly id="105347619" type="building.apartments" color="255,230,230" fill="1" layer="-1.00" shape="859.695272,1158.149454 859.488125,1158.599195 858.659286,1160.387035 852.810336,1157.747060 855.167879,1152.686867 851.267643,1149.469178 850.818749,1150.035603 848.057009,1147.949731 848.505157,1147.349939 843.619828,1143.486629 842.061520,1145.435450 841.159981,1147.614390 841.955421,1147.974938 840.530544,1151.033544 833.559423,1148.296288 826.588046,1145.547920 830.226876,1135.562864 829.769986,1133.647994 830.275344,1132.267982 831.620766,1131.726009 833.641208,1126.161473 834.842619,1124.643486 833.812592,1123.809695 836.088007,1120.843337 837.166270,1121.709432 837.971818,1120.701048 844.269361,1125.489746 844.703942,1124.890257 854.769338,1132.743826 855.613106,1131.623312 859.122982,1134.382373 862.639887,1137.152406 861.836327,1138.249764 872.260920,1146.384653 867.930221,1155.483806 864.536942,1152.777771 860.979838,1153.369199 859.027493,1157.730409 859.695272,1158.149454"/>