<configuration>

    <input>
        <net-file value="grid6/grid6.net.xml"/>
        <gui-settings-file value="grid6/settings.xml"/>
        <route-files value="grid6/grid6.rou.xml"/>
        <additional-files value="input_additional.add.xml"/>
    </input>

    <time>
        <begin value="0"/>
        <end value="220"/>
        <step-length value=".1"/>
    </time>
    <weights.random-factor value="1.2"/>

</configuration>
