<?xml version="1.0" encoding="UTF-8"?>

<!-- generated on Thu Apr 22 14:51:10 2021 by Eclipse SUMO polyconvert Version 1.7.0
<configuration xmlns:xsi="http://www.w3.org/2001/XMLSchema-instance" xsi:noNamespaceSchemaLocation="http://sumo.dlr.de/xsd/polyconvertConfiguration.xsd">

    <input>
        <net-file value="net.net.xml"/>
        <osm-files value="/home/yoshida/gitlab/osm2xodr/map.osm"/>
    </input>

    <output>
        <output-file value="converted.poly.xml"/>
    </output>

    <processing>
        <poi-layer-offset value="5"/>
    </processing>

</configuration>
-->

<additional xmlns:xsi="http://www.w3.org/2001/XMLSchema-instance" xsi:noNamespaceSchemaLocation="http://sumo.dlr.de/xsd/additional_file.xsd">
    <location netOffset="2.68,2.69" convBoundary="0.00,0.00,774.51,338.96" origBoundary="0.000000,0.000000,136.226705,36.070711" projParameter="+proj=tmerc +lat_0=36.0677042 +lon_0=136.2181376 +x_0=0 +y_0=0 +ellps=GRS80 +units=m +no_defs"/>

    <poly id="180790024" type="tourism" color="207,245,201" fill="1" layer="-2.00" shape="98.035967,62.731116 106.125649,65.760423 120.926759,66.104587 126.791407,62.187771 128.179487,9.326322 97.856391,7.883457 98.035967,62.731116"/>
    <poly id="437219283" type="water" color="181,209,209" fill="0" layer="-4.00" shape="774.509903,158.323562 706.730105,156.764413 678.578625,155.796842 619.383926,153.750809 591.349779,149.177318 569.847349,135.694227 516.210669,134.969679 387.542050,133.398546 219.488063,134.236078 202.335550,146.985006 69.198789,150.833307 67.018968,118.599330"/>
    <poly id="690244571" type="building" color="255,230,230" fill="1" layer="-1.00" shape="138.366975,92.923937 138.376026,90.205410 122.196642,90.160790 122.187597,92.879317 118.710292,92.857078 118.674093,105.306820 122.151393,105.329059 122.142351,107.803473 125.187239,107.814611 125.151041,119.576400 136.051369,119.609847 136.087582,107.836962 138.321701,107.848093 138.330748,105.373679 141.645895,105.384826 141.682126,92.935084 138.366975,92.923937"/>
    <poly id="690244572" type="building" color="255,230,230" fill="1" layer="-1.00" shape="46.966075,96.884280 86.946066,96.274292 86.315862,54.764049 52.641705,55.285306 52.551651,49.570852 46.236617,49.670682 46.966075,96.884280"/>
    <poly id="690244573" type="building" color="255,230,230" fill="1" layer="-1.00" shape="74.504852,144.231212 103.178946,143.721077 102.881854,127.210184 74.198697,127.720320 74.504852,144.231212"/>
    <poly id="690244577" type="building" color="255,230,230" fill="1" layer="-1.00" shape="142.456622,108.025694 184.553564,108.015370 184.553990,87.487720 186.986304,87.487771 186.986599,73.451297 184.545273,73.451246 184.545333,70.555183 170.311767,70.554899 170.311752,71.331621 162.059888,71.331467 162.068747,79.553623 157.384288,79.553539 157.384139,87.942135 162.068595,87.942219 162.068485,94.011746 142.456845,94.011411 142.456622,108.025694"/>
    <poly id="690244637" type="building" color="255,230,230" fill="1" layer="-1.00" shape="323.205006,83.730139 327.943516,83.719218 327.917009,69.716031 323.169484,69.715856 323.205006,83.730139"/>
    <poly id="690869328" type="building" color="255,230,230" fill="1" layer="-1.00" shape="303.538547,105.444368 306.799643,105.444480 306.799766,101.893751 320.997246,101.894255 320.997611,91.852351 306.619943,91.851841 306.619845,94.681327 305.232526,94.681279 305.232423,97.688303 303.538814,97.688245 303.538547,105.444368"/>
    <poly id="690869329" type="building" color="255,230,230" fill="1" layer="-1.00" shape="297.800484,94.081841 301.665157,94.081972 301.665272,90.708779 297.800597,90.708648 297.800484,94.081841"/>
    <poly id="690869330" type="building" color="255,230,230" fill="1" layer="-1.00" shape="291.341014,104.123530 294.052516,106.287345 301.790860,106.287606 301.791118,98.709019 296.773352,98.708849 296.773611,91.008207 291.341446,91.008026 291.341014,104.123530"/>
    <poly id="690869331" type="building" color="255,230,230" fill="1" layer="-1.00" shape="291.395735,83.795610 301.242104,83.795940 301.242188,81.332622 300.098099,81.332583 300.098183,78.858169 291.395897,78.857878 291.395735,83.795610"/>
    <poly id="690869332" type="building" color="255,230,230" fill="1" layer="-1.00" shape="291.395557,89.210471 301.611271,89.210814 301.611429,84.572675 291.395709,84.572332 291.395557,89.210471"/>
    <poly id="690869333" type="building" color="255,230,230" fill="1" layer="-1.00" shape="166.113891,63.852819 170.528102,63.852903 170.528247,56.274317 166.114032,56.274233 166.113891,63.852819"/>
    <poly id="690869336" type="building" color="255,230,230" fill="1" layer="-1.00" shape="172.942407,63.697605 174.302705,63.697632 174.302695,64.219145 181.491552,64.208192 181.491604,61.656106 183.932933,61.656156 183.933075,54.798812 177.293735,54.798677 177.293713,55.886088 176.446905,55.886071 176.446917,55.253598 172.942571,55.253529 172.942407,63.697605"/>
    <poly id="690869337" type="building" color="255,230,230" fill="1" layer="-1.00" shape="184.662566,64.696483 192.364912,64.696646 192.365088,56.574355 184.653726,56.574191 184.662566,64.696483"/>
    <poly id="690869338" type="building" color="255,230,230" fill="1" layer="-1.00" shape="193.689190,64.008721 201.968087,63.997809 201.968244,57.084985 193.689341,57.084801 193.689190,64.008721"/>
    <poly id="690869339" type="building" color="255,230,230" fill="1" layer="-1.00" shape="194.238498,73.928581 202.661522,73.928769 202.661649,68.391852 194.229610,68.391664 194.238498,73.928581"/>
    <poly id="690869340" type="building" color="255,230,230" fill="1" layer="-1.00" shape="192.544694,82.705502 203.327957,82.705742 203.328123,75.426748 194.598808,75.426553 194.598770,77.179725 192.544814,77.179680 192.544694,82.705502"/>
    <poly id="690869341" type="building" color="255,230,230" fill="1" layer="-1.00" shape="233.199791,105.353468 235.010452,107.517241 237.244572,107.517300 237.245071,88.875975 233.200224,88.875867 233.199791,105.353468"/>
    <poly id="690869342" type="building" color="255,230,230" fill="1" layer="-1.00" shape="252.342963,105.231936 256.090520,105.232043 256.090640,101.082129 252.343081,101.082021 252.342963,105.231936"/>
    <poly id="690869343" type="building" color="255,230,230" fill="1" layer="-1.00" shape="256.603942,107.484552 259.928097,107.484649 259.928515,93.237350 256.604355,93.237253 256.603942,107.484552"/>
    <poly id="690869344" type="building" color="255,230,230" fill="1" layer="-1.00" shape="260.919257,100.005955 263.883072,100.006043 263.883266,93.503771 260.919449,93.503683 260.919257,100.005955"/>
    <poly id="690869345" type="building" color="255,230,230" fill="1" layer="-1.00" shape="260.955120,105.831371 268.684455,105.831602 268.684639,99.762075 264.333507,99.761944 264.333471,100.960315 260.955263,100.960215 260.955120,105.831371"/>
    <poly id="690869346" type="building" color="255,230,230" fill="1" layer="-1.00" shape="269.594284,106.974520 277.386679,106.974761 277.386771,104.034314 279.530806,104.034381 279.530938,99.851179 269.594501,99.850871 269.594284,106.974520"/>
    <poly id="690869348" type="building" color="255,230,230" fill="1" layer="-1.00" shape="264.126319,99.462345 279.774181,99.462826 279.774318,95.135375 264.126448,95.134894 264.126319,99.462345"/>
    <poly id="690869350" type="building" color="255,230,230" fill="1" layer="-1.00" shape="196.561323,136.721051 196.561373,134.490749 188.219483,134.490569 188.219428,137.075943 189.732859,137.075975 189.732704,144.354970 199.759176,144.355189 199.759347,136.721122 196.561323,136.721051"/>
    <poly id="690869352" type="building" color="255,230,230" fill="1" layer="-1.00" shape="188.823410,117.713388 188.823137,130.584780 199.462204,130.585012 199.462493,117.713620 188.823410,117.713388"/>
    <poly id="690869353" type="building" color="255,230,230" fill="1" layer="-1.00" shape="169.076275,139.905046 180.372950,140.027324 180.499316,127.821696 176.805821,127.777238 176.823879,125.724473 171.815138,125.668895 171.797081,127.721660 169.202626,127.699418 169.076275,139.905046"/>
    <poly id="690869355" type="building" color="255,230,230" fill="1" layer="-1.00" shape="98.819143,114.882452 104.737754,114.915807 104.701640,121.706575 121.007085,121.795548 121.052252,112.563654 116.439878,112.541401 116.457951,108.269431 117.295746,108.269441 117.349945,96.929302 111.566451,96.895940 111.575487,94.676735 104.846093,94.632270 104.828049,96.862571 98.909427,96.829216 98.819143,114.882452"/>
    <poly id="690869356" type="building" color="255,230,230" fill="1" layer="-1.00" shape="217.281026,132.172162 219.479105,132.172216 225.280670,129.198626 225.280949,118.191367 217.281368,118.191167 217.281026,132.172162"/>
    <poly id="690869357" type="building" color="255,230,230" fill="1" layer="-1.00" shape="210.452514,134.369011 214.109973,134.369099 214.110071,130.285760 216.524356,130.285819 216.524639,118.679374 210.452886,118.679228 210.452514,134.369011"/>
    <poly id="690869358" type="building" color="255,230,230" fill="1" layer="-1.00" shape="209.488027,158.758058 222.379183,158.758372 222.379331,152.866381 214.226637,152.866180 214.226592,154.763601 209.488121,154.763488 209.488027,158.758058"/>
    <poly id="690869359" type="building" color="255,230,230" fill="1" layer="-1.00" shape="232.441544,163.685266 240.053718,163.685469 240.053990,153.643563 232.441807,153.643361 232.441544,163.685266"/>
    <poly id="690869360" type="building" color="255,230,230" fill="1" layer="-1.00" shape="241.927488,163.541272 255.971724,163.541666 255.971822,160.146281 251.827915,160.146163 251.828052,155.330486 246.963463,155.330350 246.963494,154.220747 243.558281,154.220652 243.558250,155.330255 241.927712,155.330211 241.927488,163.541272"/>
    <poly id="690869361" type="building" color="255,230,230" fill="1" layer="-1.00" shape="257.746579,157.283558 278.592241,157.284189 278.592379,152.901258 270.980195,152.901021 270.980153,154.276929 268.439756,154.276852 268.439791,153.133961 257.746700,153.133643 257.746579,157.283558"/>
    <poly id="690869362" type="building" color="255,230,230" fill="1" layer="-1.00" shape="258.593771,143.813004 259.863971,143.813041 259.863727,152.112870 265.485033,152.113037 265.485274,144.057321 263.854734,144.057272 263.854952,136.722797 258.593978,136.722642 258.593771,143.813004"/>
    <poly id="690869363" type="building" color="255,230,230" fill="1" layer="-1.00" shape="232.865253,151.868007 255.512628,151.868631 255.512765,147.119531 246.026807,147.119263 246.026954,141.826457 234.793338,141.826153 234.793265,144.600160 232.865444,144.600109 232.865253,151.868007"/>
    <poly id="690869364" type="building" color="255,230,230" fill="1" layer="-1.00" shape="233.406314,130.940913 239.505085,130.941075 239.505232,125.470734 240.595264,125.470763 240.595478,117.592584 233.406665,117.592391 233.406314,130.940913"/>
    <poly id="690869365" type="building" color="255,230,230" fill="1" layer="-1.00" shape="241.441955,129.565220 252.189125,129.565520 252.189393,120.178280 241.442210,120.177981 241.441955,129.565220"/>
    <poly id="690869366" type="building" color="255,230,230" fill="1" layer="-1.00" shape="253.405252,130.397756 262.278649,130.398015 262.279018,117.948272 255.756837,117.948081 255.756727,121.742922 253.405500,121.742855 253.405252,130.397756"/>
    <poly id="690869367" type="building" color="255,230,230" fill="1" layer="-1.00" shape="264.755617,142.969888 278.592691,142.970313 278.592898,136.412560 264.755813,136.412136 264.755617,142.969888"/>
    <poly id="690869368" type="building" color="255,230,230" fill="1" layer="-1.00" shape="296.052012,118.315506 300.817528,118.315667 300.817703,113.144918 296.052185,113.144757 296.052012,118.315506"/>
    <poly id="690869369" type="building" color="255,230,230" fill="1" layer="-1.00" shape="290.916984,123.241972 300.880420,123.242305 300.880553,119.336503 290.917112,119.336170 290.916984,123.241972"/>
    <poly id="690869370" type="building" color="255,230,230" fill="1" layer="-1.00" shape="290.853685,130.520964 300.393712,130.521283 300.393928,124.152163 290.853894,124.151844 290.853685,130.520964"/>
    <poly id="690869371" type="building" color="255,230,230" fill="1" layer="-1.00" shape="302.636842,130.288342 309.213065,130.288570 309.213250,124.995765 314.113891,124.995937 314.114002,121.866858 311.150194,121.866753 311.150470,114.044053 302.637398,114.043758 302.636842,130.288342"/>
    <poly id="690869372" type="building" color="255,230,230" fill="1" layer="-1.00" shape="314.834573,124.995963 320.996408,124.996185 320.996777,114.832223 314.834935,114.832002 314.834573,124.995963"/>
    <poly id="690869373" type="building" color="255,230,230" fill="1" layer="-1.00" shape="322.266415,130.344516 328.671476,130.344752 328.671908,118.738307 322.266838,118.738071 322.266415,130.344516"/>
    <poly id="690869381" type="building" color="255,230,230" fill="1" layer="-1.00" shape="322.627751,103.103782 330.483208,103.104072 330.483795,87.403193 322.628324,87.402903 322.627751,103.103782"/>
    <poly id="690869382" type="building" color="255,230,230" fill="1" layer="-1.00" shape="316.827493,68.217663 322.115534,68.217854 322.115667,64.578357 316.827623,64.578166 316.827493,68.217663"/>
    <poly id="690869383" type="building" color="255,230,230" fill="1" layer="-1.00" shape="312.088604,78.747624 321.781833,78.747971 321.782195,68.817027 312.088954,68.816680 312.088604,78.747624"/>
    <poly id="690869384" type="building" color="255,230,230" fill="1" layer="-1.00" shape="291.612306,72.699591 309.341199,72.700193 309.341378,67.584924 307.890995,67.584874 307.891041,66.264447 299.702232,66.264165 299.702188,67.584593 291.612475,67.584322 291.612306,72.699591"/>
    <poly id="690869411" type="building" color="255,230,230" fill="1" layer="-1.00" shape="263.855370,122.708514 279.223926,122.697890 279.224059,118.492495 276.962980,116.450755 268.594048,116.450497 268.593980,118.680799 263.846481,118.680656 263.855370,122.708514"/>
    <poly id="690869412" type="building" color="255,230,230" fill="1" layer="-1.00" shape="263.629943,129.887638 279.052538,129.888110 279.052741,123.452414 263.630134,123.463038 263.629943,129.887638"/>
    <poly id="690869413" type="building" color="255,230,230" fill="1" layer="-1.00" shape="205.102287,98.229124 215.759414,98.096225 215.777377,100.304334 221.587897,100.237901 221.659825,105.852493 224.524545,105.819277 226.461384,105.797134 226.227665,86.057296 212.516617,86.223397 212.498640,84.558993 209.651931,84.592213 209.642944,83.671243 212.300473,83.638018 212.228559,77.180129 206.057681,77.257655 206.147598,84.503363 204.931441,84.525527 205.102287,98.229124"/>
    <poly id="690869422" type="building" color="255,230,230" fill="1" layer="-1.00" shape="233.714246,68.636728 244.398431,68.637016 244.398520,65.385880 233.714331,65.385592 233.714246,68.636728"/>
    <poly id="690869423" type="building" color="255,230,230" fill="1" layer="-1.00" shape="239.749725,78.800849 251.109541,78.801164 251.109796,69.780094 239.749969,69.779780 239.749725,78.800849"/>
    <poly id="690869424" type="building" color="255,230,230" fill="1" layer="-1.00" shape="238.055395,105.508941 244.217243,105.509109 244.217626,91.605787 238.055768,91.605619 238.055395,105.508941"/>
    <poly id="690869425" type="building" color="255,230,230" fill="1" layer="-1.00" shape="245.613539,106.585462 251.955557,106.585640 251.956039,89.630910 245.614008,89.630732 245.613539,106.585462"/>
    <poly id="690869426" type="building" color="255,230,230" fill="1" layer="-1.00" shape="255.090986,90.829371 264.396834,90.829644 264.396920,87.944677 273.639710,87.944958 273.639740,86.979603 276.360328,86.979688 276.360464,82.618949 268.991451,82.618722 268.991477,81.775424 255.091246,81.775013 255.090986,90.829371"/>
    <poly id="690869427" type="building" color="255,230,230" fill="1" layer="-1.00" shape="269.504973,81.542423 279.585568,81.542736 279.585842,72.843451 269.505237,72.843138 269.504973,81.542423"/>
    <poly id="690869428" type="building" color="255,230,230" fill="1" layer="-1.00" shape="264.883845,72.487926 279.775034,72.488384 279.775219,66.618586 268.442413,66.618235 268.442350,68.693192 264.883958,68.693085 264.883845,72.487926"/>
    <poly id="690869429" type="building" color="255,230,230" fill="1" layer="-1.00" shape="262.280572,65.452967 279.775256,65.453503 279.775438,59.705761 268.748915,59.705420 268.748835,62.357370 262.280664,62.357176 262.280572,65.452967"/>
    <poly id="690990785" type="parking" color="184,184,179" fill="1" layer="-1.00" shape="289.159133,159.559214 295.005647,159.526119 294.978811,153.844951 311.013945,153.756732 311.103394,171.821069 289.221788,171.931287 289.257580,179.332339 291.455597,180.863664 328.471418,180.676329 328.373075,160.481553 343.642475,160.404461 343.535174,139.799133 291.637118,139.874941 289.069621,142.016390 289.159133,159.559214"/>
    <poly id="690990786" type="building" color="255,230,230" fill="1" layer="-1.00" shape="266.601364,176.113780 266.601173,182.460708 276.177178,182.461002 278.681602,180.264067 278.681733,176.114152 266.601364,176.113780"/>
    <poly id="690990787" type="building" color="255,230,230" fill="1" layer="-1.00" shape="236.152533,182.781629 242.467471,182.781800 242.467708,174.126897 236.152764,174.126727 236.152533,182.781629"/>
    <poly id="690990788" type="building" color="255,230,230" fill="1" layer="-1.00" shape="243.584654,177.943962 250.620274,177.944158 250.620645,164.806460 246.909148,164.806356 246.909119,165.827191 241.594111,165.827044 241.593937,172.229453 243.584811,172.229507 243.584654,177.943962"/>
    <poly id="690990789" type="building" color="255,230,230" fill="1" layer="-1.00" shape="251.584058,182.271636 257.926021,182.271819 257.926536,164.595845 251.584560,164.595663 251.584058,182.271636"/>
    <poly id="690990790" type="building" color="255,230,230" fill="1" layer="-1.00" shape="258.925946,182.815553 265.628248,182.815752 265.628655,169.256405 258.926342,169.256207 258.925946,182.815553"/>
    <poly id="690990791" type="building" color="255,230,230" fill="1" layer="-1.00" shape="266.844782,169.855627 278.645896,169.855991 278.646062,164.563185 268.988962,164.562886 268.988888,167.004013 266.844868,167.003948 266.844782,169.855627"/>
    <poly id="690990792" type="building" color="255,230,230" fill="1" layer="-1.00" shape="266.718501,175.237197 278.744820,175.237568 278.744970,170.455179 266.718645,170.454809 266.718501,175.237197"/>
    <poly id="690990794" type="building" color="255,230,230" fill="1" layer="-1.00" shape="231.979978,245.207779 235.853593,245.207881 235.853731,240.014939 231.980114,240.014837 231.979978,245.207779"/>
    <poly id="690990795" type="building" color="255,230,230" fill="1" layer="-1.00" shape="236.304020,244.974877 258.320566,244.975491 258.320682,240.969824 253.366056,240.969681 253.366155,237.541008 247.510685,237.540843 247.510761,234.833412 236.304290,234.833106 236.304020,244.974877"/>
    <poly id="690990796" type="building" color="255,230,230" fill="1" layer="-1.00" shape="260.302771,232.880877 262.518842,232.880942 262.518890,231.260922 260.302818,231.260857 260.302771,232.880877"/>
    <poly id="690990797" type="building" color="255,230,230" fill="1" layer="-1.00" shape="255.933840,227.587944 259.050755,227.588034 259.050857,224.092785 255.933941,224.092694 255.933840,227.587944"/>
    <poly id="690990798" type="building" color="255,230,230" fill="1" layer="-1.00" shape="249.618854,230.450539 257.447172,230.450763 257.447229,228.508958 249.618909,228.508734 249.618854,230.450539"/>
    <poly id="690990799" type="building" color="255,230,230" fill="1" layer="-1.00" shape="235.727854,230.971672 245.817285,230.971946 245.817340,229.019045 246.826283,229.019073 246.826389,225.202039 235.728007,225.201737 235.727854,230.971672"/>
    <poly id="690990800" type="building" color="255,230,230" fill="1" layer="-1.00" shape="273.301930,232.548388 278.238543,232.548541 278.238656,228.964524 273.302040,228.964370 273.301930,232.548388"/>
    <poly id="690990801" type="building" color="255,230,230" fill="1" layer="-1.00" shape="263.248534,232.525891 272.968619,232.526185 272.968729,228.942168 271.914744,228.942135 271.914856,225.280446 263.248750,225.280184 263.248534,232.525891"/>
    <poly id="690990802" type="building" color="255,230,230" fill="1" layer="-1.00" shape="258.681536,223.260572 277.860481,223.261153 277.860622,218.778357 258.681667,218.777776 258.681536,223.260572"/>
    <poly id="690990803" type="building" color="255,230,230" fill="1" layer="-1.00" shape="241.952863,224.014629 248.204712,224.014802 248.204627,227.055114 255.150123,227.055312 255.150441,216.014762 249.619261,216.014605 249.619560,205.373513 241.953372,205.373300 241.952863,224.014629"/>
    <poly id="690990804" type="building" color="255,230,230" fill="1" layer="-1.00" shape="233.764502,212.618788 241.043321,212.618983 241.043491,206.394110 233.764666,206.393915 233.764502,212.618788"/>
    <poly id="690990805" type="building" color="255,230,230" fill="1" layer="-1.00" shape="222.621224,206.160612 225.116563,206.160675 225.116608,204.396406 222.621268,204.396343 222.621224,206.160612"/>
    <poly id="690990806" type="building" color="255,230,230" fill="1" layer="-1.00" shape="217.306117,211.175885 223.675085,211.176044 223.675200,206.626672 217.306229,206.626514 217.306117,211.175885"/>
    <poly id="690990807" type="building" color="255,230,230" fill="1" layer="-1.00" shape="210.333594,210.720780 212.901000,210.720842 212.901069,207.869162 216.306261,207.869244 216.306497,198.182411 210.333891,198.182268 210.333594,210.720780"/>
    <poly id="690990808" type="building" color="255,230,230" fill="1" layer="-1.00" shape="200.874577,217.511331 204.045546,217.511404 204.045727,209.611031 209.694021,209.611162 209.694300,197.793891 200.875023,197.793688 200.874577,217.511331"/>
    <poly id="690990809" type="building" color="255,230,230" fill="1" layer="-1.00" shape="201.270718,227.675303 209.693595,227.675498 209.693816,218.299353 201.270930,218.299158 201.270718,227.675303"/>
    <poly id="690990810" type="building" color="255,230,230" fill="1" layer="-1.00" shape="211.035763,231.348315 216.440815,231.348446 216.440957,225.511934 211.035901,225.511804 211.035763,231.348315"/>
    <poly id="690990811" type="building" color="255,230,230" fill="1" layer="-1.00" shape="201.874001,240.069582 211.098614,240.069796 211.098638,239.060057 221.719557,239.060316 221.719742,231.637073 210.567318,231.636801 210.567349,230.327470 201.874222,230.327268 201.874001,240.069582"/>
    <poly id="690990813" type="building" color="255,230,230" fill="1" layer="-1.00" shape="188.308148,201.554966 194.118603,201.399747 194.037595,198.248473 188.227139,198.392596 188.308148,201.554966"/>
    <poly id="690990814" type="building" color="255,230,230" fill="1" layer="-1.00" shape="160.128996,241.444640 171.236371,241.167446 170.939321,229.294689 177.110094,229.139465 177.083094,227.863421 197.658347,227.353437 197.163313,207.990855 198.559623,207.946502 198.289607,197.305404 194.659197,197.394092 194.866218,205.316661 168.516497,205.981885 168.840557,218.842189 166.939777,218.886537 167.137813,226.853490 169.047600,226.809142 169.074601,228.062994 159.795920,228.295839 160.128996,241.444640"/>
    <poly id="690990861" type="building" color="255,230,230" fill="1" layer="-1.00" shape="296.590766,170.755352 310.436813,170.489523 310.140082,154.855208 296.285001,155.121038 296.410908,161.434682 292.915611,161.501142 292.960570,164.031038 296.455866,163.953482 296.590766,170.755352"/>
    <poly id="690990862" type="building" color="255,230,230" fill="1" layer="-1.00" shape="115.250103,162.995024 124.150496,162.673358 123.772284,152.231990 114.871880,152.553657 115.250103,162.995024"/>
    <poly id="690990863" type="building" color="255,230,230" fill="1" layer="-1.00" shape="106.313540,174.845472 114.222988,174.557073 113.619628,158.068367 105.710166,158.345671 106.313540,174.845472"/>
    <poly id="690990864" type="building" color="255,230,230" fill="1" layer="-1.00" shape="113.132791,188.138598 123.402446,187.761468 123.105278,179.661363 112.844622,180.027397 113.132791,188.138598"/>
    <poly id="690990865" type="building" color="255,230,230" fill="1" layer="-1.00" shape="93.386327,179.239356 104.746018,178.828928 104.250709,165.313960 100.106802,165.469257 99.845635,158.301220 92.629828,158.567448 93.386327,179.239356"/>
    <poly id="690990866" type="building" color="255,230,230" fill="1" layer="-1.00" shape="76.585441,188.981512 90.386413,188.482318 89.999155,177.852318 76.198166,178.351513 76.585441,188.981512"/>
    <poly id="690990867" type="building" color="255,230,230" fill="1" layer="-1.00" shape="126.663895,160.587340 134.726501,160.298961 135.185742,172.981728 139.536841,172.826451 139.617880,175.212098 148.977695,174.879369 148.896658,172.482625 153.490987,172.316263 152.797656,153.497387 147.473629,153.685930 147.383582,151.389050 126.357725,152.154354 126.663895,160.587340"/>
    <poly id="690990868" type="building" color="255,230,230" fill="1" layer="-1.00" shape="116.096717,177.253432 132.185864,176.665565 131.708608,163.516764 115.619437,164.104632 116.096717,177.253432"/>
    <poly id="690990869" type="building" color="255,230,230" fill="1" layer="-1.00" shape="130.231490,144.653495 133.456538,144.598062 133.249515,132.991614 130.024463,133.047047 130.231490,144.653495"/>
    <poly id="690990870" type="building" color="255,230,230" fill="1" layer="-1.00" shape="139.960668,145.496940 154.428337,145.241970 154.194348,131.826868 146.735289,131.959895 146.843289,138.151480 139.825653,138.273424 139.960668,145.496940"/>
    <poly id="690990871" type="building" color="255,230,230" fill="1" layer="-1.00" shape="111.746025,144.897358 124.141737,144.675600 123.952705,134.123275 111.556977,134.345033 111.746025,144.897358"/>
    <poly id="691016621" type="building" color="255,230,230" fill="1" layer="-1.00" shape="290.427282,221.974417 291.958664,223.527912 303.399366,223.605969 303.444621,217.403290 290.463469,217.314086 290.427282,221.974417"/>
    <poly id="691016623" type="building" color="255,230,230" fill="1" layer="-1.00" shape="293.535835,202.545373 297.562612,202.567699 297.589758,198.961491 293.562980,198.939164 293.535835,202.545373"/>
    <poly id="691016625" type="building" color="255,230,230" fill="1" layer="-1.00" shape="298.553524,203.089246 302.337072,203.111566 302.355217,199.361109 298.580676,199.327693 298.553524,203.089246"/>
    <poly id="691016627" type="building" color="255,230,230" fill="1" layer="-1.00" shape="290.310955,198.117951 303.463296,198.218256 303.481409,195.410962 300.094230,195.388654 300.112333,192.858760 303.139175,192.881055 303.157280,190.284585 295.995554,190.228862 295.986520,191.005584 292.698432,190.983283 290.347172,192.558841 290.310955,198.117951"/>
    <poly id="691016629" type="building" color="255,230,230" fill="1" layer="-1.00" shape="304.445259,197.008823 309.318833,197.042280 309.364100,190.606585 304.490523,190.573128 304.445259,197.008823"/>
    <poly id="691016631" type="building" color="255,230,230" fill="1" layer="-1.00" shape="318.606138,208.493712 324.876014,208.538324 324.894105,206.518847 318.624228,206.474235 318.606138,208.493712"/>
    <poly id="691016633" type="building" color="255,230,230" fill="1" layer="-1.00" shape="314.921856,203.688999 317.795550,203.711294 317.822699,200.260430 319.354136,200.271581 319.417519,191.305992 315.012382,191.283642 314.921856,203.688999"/>
    <poly id="691016635" type="building" color="255,230,230" fill="1" layer="-1.00" shape="310.273335,208.282591 313.867703,208.316006 313.985421,191.172645 310.391046,191.150326 310.273335,208.282591"/>
    <poly id="691016636" type="building" color="255,230,230" fill="1" layer="-1.00" shape="304.264704,208.226902 309.111246,208.260358 309.183669,198.096398 304.328113,198.062942 304.264704,208.226902"/>
    <poly id="691016637" type="building" color="255,230,230" fill="1" layer="-1.00" shape="290.364398,216.648321 302.841078,216.737507 302.868259,212.199232 290.400581,212.110046 290.364398,216.648321"/>
    <poly id="691016638" type="building" color="255,230,230" fill="1" layer="-1.00" shape="305.345290,220.621204 311.074651,220.654692 311.156128,209.247976 305.426759,209.214489 305.345290,220.621204"/>
    <poly id="691016639" type="building" color="255,230,230" fill="1" layer="-1.00" shape="318.912523,205.797388 325.497696,205.842012 325.579229,193.414462 322.417260,193.403251 322.426331,191.694462 320.021072,191.683279 319.957678,200.948461 318.948731,200.948424 318.912523,205.797388"/>
    <poly id="691016723" type="forest" color="140,196,107" fill="1" layer="-3.00" shape="207.490085,75.548901 207.616310,71.043917 210.337038,65.329527 215.886407,62.200581 220.660926,63.643181 225.552593,63.587824 225.498031,83.671631 215.282307,83.793434 213.597732,82.650503 213.651951,75.671103 211.057470,76.092690 207.490085,75.548901"/>
    <poi id="1420949858" type="amenity" color="237,199,199" layer="4.00" x="174.15" y="213.60"/>
    <poi id="1912548257" type="amenity" color="237,199,199" layer="4.00" x="131.98" y="97.76"/>
    <poi id="5646717021" type="amenity" color="237,199,199" layer="4.00" x="180.08" y="126.90"/>
    <poi id="6483629283" type="natural" color="140,196,107" layer="1.00" x="142.13" y="87.88"/>
    <poi id="6483629284" type="natural" color="140,196,107" layer="1.00" x="115.13" y="67.31"/>
    <poi id="6483629285" type="natural" color="140,196,107" layer="1.00" x="110.00" y="67.01"/>
    <poi id="6483629286" type="natural" color="140,196,107" layer="1.00" x="100.39" y="71.40"/>
    <poi id="6483629287" type="natural" color="140,196,107" layer="1.00" x="101.78" y="85.59"/>
</additional>
