<?xml version="1.0" encoding="UTF-8"?>

<!-- generated on Mon Mar 25 08:13:01 2019 by Eclipse SUMO netgenerate Version v1_0_1+0645-93703db
-->

<configuration xmlns:xsi="http://www.w3.org/2001/XMLSchema-instance" xsi:noNamespaceSchemaLocation="http://sumo.dlr.de/xsd/netgenerateConfiguration.xsd">

    <grid_network>
        <grid value="true"/>
        <grid.number value="10"/>
    </grid_network>

    <junctions>
        <no-turnarounds value="true"/>
    </junctions>

</configuration>
