<?xml version="1.0" encoding="UTF-8"?>

<!-- generated on 07.04.2014 15:08:57 by Netedit Version dev-SVN-r16105
<?xml version="1.0" encoding="UTF-8"?>

<configuration xmlns:xsi="http://www.w3.org/2001/XMLSchema-instance" xsi:noNamespaceSchemaLocation="https://sumo-sim.org/xsd/netedit.exeConfiguration.xsd">

    <input>
        <sumo-net-file value="highway\highway.net.xml"/>
    </input>

    <output>
        <output-file value="highway\highway.net.xml"/>
    </output>

    <processing>
        <no-turnarounds value="true"/>
        <offset.disable-normalization value="true"/>
    </processing>

</configuration>
-->

<net version="0.13" xmlns:xsi="http://www.w3.org/2001/XMLSchema-instance" xsi:noNamespaceSchemaLocation="https://sumo-sim.org/xsd/net_file.xsd">

    <location netOffset="-498221.06,-5876450.52" convBoundary="166.09,0.00,2986.43,1606.94" origBoundary="8.973461,53.037575,9.019344,53.059235" projParameter="+proj=utm +zone=32 +ellps=WGS84 +datum=WGS84 +units=m +no_defs"/>

    <edge id=":1285390101_0" function="internal">
        <lane id=":1285390101_0_0" index="0" speed="33.33" length="3.39" shape="606.77,503.48 609.39,501.33"/>
    </edge>
    <edge id=":1285390101_1" function="internal">
        <lane id=":1285390101_1_0" index="0" speed="27.77" length="1.62" shape="610.62,502.48 611.80,503.59"/>
    </edge>
    <edge id=":1658939360_0" function="internal">
        <lane id=":1658939360_0_0" index="0" speed="44.44" length="0.12" shape="2123.50,1334.45 2123.63,1334.53"/>
        <lane id=":1658939360_0_1" index="1" speed="44.44" length="0.12" shape="2121.87,1337.32 2121.87,1337.32"/>
        <lane id=":1658939360_0_2" index="2" speed="44.44" length="0.12" shape="2120.20,1340.16 2120.20,1340.16"/>
    </edge>
    <edge id=":1658939377_0" function="internal">
        <lane id=":1658939377_0_0" index="0" speed="44.44" length="0.12" shape="2134.51,1340.82 2134.64,1340.89"/>
        <lane id=":1658939377_0_1" index="1" speed="44.44" length="0.12" shape="2132.97,1343.74 2132.97,1343.74"/>
        <lane id=":1658939377_0_2" index="2" speed="44.44" length="0.12" shape="2131.39,1346.64 2131.39,1346.64"/>
    </edge>
    <edge id=":1658965289_0" function="internal">
        <lane id=":1658965289_0_0" index="0" speed="33.33" length="6.57" shape="771.15,395.15 765.49,398.49"/>
    </edge>
    <edge id=":1658965289_1" function="internal">
        <lane id=":1658965289_1_0" index="0" speed="33.33" length="7.39" shape="769.44,392.30 763.14,396.17"/>
    </edge>
    <edge id=":1658965296_0" function="internal">
        <lane id=":1658965296_0_0" index="0" speed="33.33" length="0.10" shape="718.94,428.56 718.97,428.52"/>
        <lane id=":1658965296_0_1" index="1" speed="33.33" length="0.10" shape="716.58,426.24 716.57,426.26"/>
    </edge>
    <edge id=":1658965297_0" function="internal">
        <lane id=":1658965297_0_0" index="0" speed="33.33" length="0.10" shape="729.06,435.26 729.07,435.25"/>
        <lane id=":1658965297_0_1" index="1" speed="33.33" length="0.10" shape="726.72,432.94 726.72,432.94"/>
    </edge>
    <edge id=":1658965305_0" function="internal">
        <lane id=":1658965305_0_0" index="0" speed="33.33" length="5.55" shape="778.72,476.39 784.20,477.30"/>
    </edge>
    <edge id=":1658965305_1" function="internal">
        <lane id=":1658965305_1_0" index="0" speed="33.33" length="6.51" shape="776.97,479.18 783.19,481.11"/>
    </edge>
    <edge id=":1658965310_0" function="internal">
        <lane id=":1658965310_0_0" index="0" speed="33.33" length="3.42" shape="655.24,513.44 652.00,514.53"/>
    </edge>
    <edge id=":1658965317_0" function="internal">
        <lane id=":1658965317_0_0" index="0" speed="33.33" length="3.13" shape="1096.14,673.36 1098.66,675.23"/>
    </edge>
    <edge id=":1658965317_1" function="internal">
        <lane id=":1658965317_1_0" index="0" speed="33.33" length="0.98" shape="1097.36,677.15 1096.80,677.96"/>
    </edge>
    <edge id=":1658965318_0" function="internal">
        <lane id=":1658965318_0_0" index="0" speed="38.88" length="46.59" shape="1214.44,753.73 1221.10,758.93 1228.95,765.70 1238.42,773.41 1249.93,781.46"/>
        <lane id=":1658965318_0_1" index="1" speed="38.88" length="46.59" shape="1210.99,755.38 1217.92,760.75 1226.34,767.91 1236.39,776.02 1248.17,784.25"/>
        <lane id=":1658965318_0_2" index="2" speed="38.88" length="46.59" shape="1210.99,755.38 1217.64,761.19 1225.46,769.31 1234.90,778.38 1246.40,787.04"/>
    </edge>
    <edge id=":1658965318_3" function="internal">
        <lane id=":1658965318_3_0" index="0" speed="44.44" length="47.83" shape="1208.44,757.58 1217.64,763.59 1226.74,769.89 1236.62,776.69 1248.17,784.25"/>
        <lane id=":1658965318_3_1" index="1" speed="44.44" length="47.83" shape="1206.70,760.38 1215.89,766.39 1224.98,772.68 1234.86,779.48 1246.40,787.04"/>
        <lane id=":1658965318_3_2" index="2" speed="44.44" length="47.83" shape="1204.95,763.19 1214.15,769.19 1223.23,775.48 1233.10,782.28 1244.64,789.83"/>
    </edge>
    <edge id=":1659040788_0" function="internal">
        <lane id=":1659040788_0_0" index="0" speed="33.33" length="6.35" shape="716.58,389.02 719.34,383.30"/>
    </edge>
    <edge id=":1659040788_1" function="internal">
        <lane id=":1659040788_1_0" index="0" speed="33.33" length="7.02" shape="718.96,391.31 722.57,385.28"/>
    </edge>
    <edge id=":1659040809_0" function="internal">
        <lane id=":1659040809_0_0" index="0" speed="33.33" length="0.10" shape="694.53,412.02 694.53,412.02"/>
        <lane id=":1659040809_0_1" index="1" speed="33.33" length="0.10" shape="696.91,414.30 696.91,414.30"/>
    </edge>
    <edge id=":1659040831_0" function="internal">
        <lane id=":1659040831_0_0" index="0" speed="33.33" length="0.10" shape="705.05,418.96 705.05,418.96"/>
        <lane id=":1659040831_0_1" index="1" speed="33.33" length="0.10" shape="707.41,421.26 707.41,421.26"/>
    </edge>
    <edge id=":1659040835_0" function="internal">
        <lane id=":1659040835_0_0" index="0" speed="33.33" length="6.62" shape="669.04,404.02 673.52,408.91"/>
    </edge>
    <edge id=":1659040835_1" function="internal">
        <lane id=":1659040835_1_0" index="0" speed="33.33" length="7.30" shape="666.66,406.38 671.71,411.67"/>
    </edge>
    <edge id=":2001841184_0" function="internal">
        <lane id=":2001841184_0_0" index="0" speed="44.44" length="0.10" shape="1003.24,627.75 1003.24,627.75"/>
        <lane id=":2001841184_0_1" index="1" speed="44.44" length="0.10" shape="1001.46,630.53 1001.46,630.53"/>
        <lane id=":2001841184_0_2" index="2" speed="44.44" length="0.10" shape="999.71,633.33 999.68,633.31"/>
    </edge>
    <edge id=":2024041878_0" function="internal">
        <lane id=":2024041878_0_0" index="0" speed="44.44" length="3.42" shape="1494.89,936.82 1496.52,939.80"/>
        <lane id=":2024041878_0_1" index="1" speed="44.44" length="3.42" shape="1493.12,939.60 1494.77,942.60"/>
        <lane id=":2024041878_0_2" index="2" speed="44.44" length="3.42" shape="1491.35,942.39 1493.02,945.39"/>
    </edge>
    <edge id=":2112411742_0" function="internal">
        <lane id=":2112411742_0_0" index="0" speed="33.33" length="0.10" shape="651.92,456.40 651.92,456.40"/>
        <lane id=":2112411742_0_1" index="1" speed="33.33" length="0.10" shape="654.30,458.68 654.30,458.68"/>
    </edge>
    <edge id=":2112411743_0" function="internal">
        <lane id=":2112411743_0_0" index="0" speed="33.33" length="0.10" shape="687.49,477.89 687.46,477.92"/>
        <lane id=":2112411743_0_1" index="1" speed="33.33" length="0.10" shape="685.06,475.66 685.04,475.68"/>
    </edge>
    <edge id=":2113031281_0" function="internal">
        <lane id=":2113031281_0_0" index="0" speed="33.33" length="0.10" shape="630.27,479.12 630.28,479.12"/>
        <lane id=":2113031281_0_1" index="1" speed="33.33" length="0.10" shape="632.67,481.39 632.66,481.40"/>
    </edge>
    <edge id=":21721178_0" function="internal">
        <lane id=":21721178_0_0" index="0" speed="33.33" length="0.10" shape="676.83,472.25 676.85,472.23"/>
        <lane id=":21721178_0_1" index="1" speed="33.33" length="0.10" shape="674.47,469.95 674.46,469.95"/>
    </edge>
    <edge id=":30397945_0" function="internal">
        <lane id=":30397945_0_0" index="0" speed="33.33" length="0.10" shape="663.52,462.80 663.51,462.81"/>
        <lane id=":30397945_0_1" index="1" speed="33.33" length="0.10" shape="665.90,465.08 665.91,465.07"/>
    </edge>

    <edge id="145354574" from="1658965281" to="2001841184" priority="13" type="highway.motorway" spreadType="center" shape="535.71,337.09 599.05,377.18 750.89,473.31 876.19,552.22 1001.46,630.53">
        <lane id="145354574_0" index="0" speed="44.44" length="550.50" shape="537.47,334.30 600.81,374.39 752.66,470.52 877.95,549.43 1003.24,627.75"/>
        <lane id="145354574_1" index="1" speed="44.44" length="550.50" shape="535.71,337.09 599.05,377.18 750.89,473.31 876.19,552.22 1001.46,630.53"/>
        <lane id="145354574_2" index="2" speed="44.44" length="550.50" shape="533.95,339.88 597.29,379.97 749.12,476.10 874.43,555.01 999.71,633.33"/>
    </edge>
    <edge id="145354802" from="1658965271" to="1658965289" priority="12" type="highway.motorway_link" spreadType="center">
        <lane id="145354802_0" index="0" speed="33.33" length="376.22" shape="1037.38,128.19 769.44,392.30"/>
    </edge>
    <edge id="145354804" from="1659040839" to="1285389396" priority="12" type="highway.motorway_link" spreadType="center" shape="599.99,412.07 550.12,381.92 272.55,199.05">
        <lane id="145354804_0" index="0" speed="33.33" length="390.41" shape="599.77,411.94 550.12,381.92 272.55,199.05"/>
    </edge>
    <edge id="153177809" from="1658939360" to="1658939377" priority="13" type="highway.motorway" spreadType="center">
        <lane id="153177809_0" index="0" speed="44.44" length="12.77" shape="2123.63,1334.53 2134.51,1340.82"/>
        <lane id="153177809_1" index="1" speed="44.44" length="12.77" shape="2121.87,1337.32 2132.97,1343.74"/>
        <lane id="153177809_2" index="2" speed="44.44" length="12.77" shape="2120.20,1340.16 2131.39,1346.64"/>
    </edge>
    <edge id="153177820" from="1658939377" to="2055321499" priority="13" type="highway.motorway" spreadType="center" shape="2132.97,1343.74 2209.03,1384.59 2271.89,1416.10 2339.86,1446.94 2408.36,1475.43 2481.49,1501.95 2542.83,1522.08 2604.11,1540.19 2650.55,1552.62 2675.69,1558.85 2756.06,1576.34 2845.85,1591.79 2933.16,1602.29 2966.77,1605.57 2986.43,1606.94">
        <lane id="153177820_0" index="0" speed="44.44" length="900.45" shape="2134.64,1340.89 2210.59,1381.68 2273.37,1413.15 2341.22,1443.93 2409.63,1472.38 2482.62,1498.85 2543.86,1518.94 2605.05,1537.03 2651.40,1549.43 2676.48,1555.65 2756.76,1573.12 2846.41,1588.54 2933.55,1599.01 2967.09,1602.29 2986.66,1603.65"/>
        <lane id="153177820_1" index="1" speed="44.44" length="900.45" shape="2132.97,1343.74 2209.03,1384.59 2271.89,1416.10 2339.86,1446.94 2408.36,1475.43 2481.49,1501.95 2542.83,1522.08 2604.11,1540.19 2650.55,1552.62 2675.69,1558.85 2756.06,1576.34 2845.85,1591.79 2933.16,1602.29 2966.77,1605.57 2986.43,1606.94"/>
        <lane id="153177820_2" index="2" speed="44.44" length="900.45" shape="2131.39,1346.64 2207.47,1387.50 2270.41,1419.05 2338.50,1449.95 2407.09,1478.48 2480.36,1505.05 2541.80,1525.22 2603.17,1543.35 2649.70,1555.81 2674.90,1562.05 2755.36,1579.56 2845.29,1595.04 2932.77,1605.57 2966.45,1608.85 2986.20,1610.23"/>
    </edge>
    <edge id="153180750" from="1658965247" to="1658965296" priority="13" type="highway.motorway" spreadType="center" shape="1142.81,12.65 1097.11,53.59 1013.34,133.82 863.17,279.10 717.76,427.40">
        <lane id="153180750_0" index="0" speed="33.33" length="593.99" shape="1143.91,13.88 1098.21,54.82 1014.48,135.01 864.32,280.29 718.94,428.56"/>
        <lane id="153180750_1" index="1" speed="33.33" length="593.99" shape="1141.71,11.42 1096.01,52.36 1012.20,132.63 862.02,277.91 716.58,426.24"/>
    </edge>
    <edge id="153180751" from="1658965271" to="1658965317" priority="12" type="highway.motorway_link" spreadType="center" shape="1037.46,128.11 965.03,224.17 941.35,263.90 925.74,298.96 910.98,349.55 910.07,392.27 916.75,455.63 946.82,534.64 977.38,573.14 1016.15,608.50 1112.35,686.51">
        <lane id="153180751_0" index="0" speed="33.33" length="653.11" shape="1037.39,128.20 965.03,224.17 941.35,263.90 925.74,298.96 910.98,349.55 910.07,392.27 916.75,455.63 946.82,534.64 977.38,573.14 1016.15,608.50 1096.14,673.36"/>
    </edge>
    <edge id="153180753" from="1658965305" to="1658965317" priority="12" type="highway.motorway_link" spreadType="center" shape="777.49,477.56 830.38,510.46 1112.35,686.51">
        <lane id="153180753_0" index="0" speed="33.33" length="370.31" shape="783.19,481.11 830.38,510.46 1097.36,677.15"/>
    </edge>
    <edge id="153180754" from="1658965297" to="2112411743" priority="12" type="highway.motorway_link" spreadType="center">
        <lane id="153180754_0" index="0" speed="33.33" length="59.61" shape="729.07,435.25 687.49,477.89"/>
        <lane id="153180754_1" index="1" speed="33.33" length="59.61" shape="726.72,432.94 685.06,475.66"/>
    </edge>
    <edge id="153180756" from="1659040835" to="1658965305" priority="12" type="highway.motorway_link" spreadType="center" shape="674.11,411.27 725.33,444.85 777.49,477.56">
        <lane id="153180756_0" index="0" speed="33.33" length="125.03" shape="673.52,408.91 726.23,443.47 778.72,476.39"/>
        <lane id="153180756_1" index="1" speed="33.33" length="125.03" shape="671.71,411.67 724.43,446.23 776.97,479.18"/>
    </edge>
    <edge id="153180757" from="1658965305" to="1658965289" priority="12" type="highway.motorway_link" spreadType="center" shape="777.49,477.56 784.65,477.28 805.00,487.24 825.60,493.27 840.03,493.92 852.42,491.35 865.54,486.48 875.27,479.23 883.42,471.24 889.33,463.14 893.21,454.53 897.55,439.76 898.53,424.41 896.34,411.07 891.73,398.56 884.86,386.61 874.23,375.80 863.01,369.20 847.75,364.88 833.34,362.62 821.02,364.20 808.48,368.83 790.06,378.08 770.03,396.16 763.50,398.15">
        <lane id="153180757_0" index="0" speed="33.33" length="330.59" shape="784.20,477.30 784.65,477.28 805.00,487.24 825.60,493.27 840.03,493.92 852.42,491.35 865.54,486.48 875.27,479.23 883.42,471.24 889.33,463.14 893.21,454.53 897.55,439.76 898.53,424.41 896.34,411.07 891.73,398.56 884.86,386.61 874.23,375.80 863.01,369.20 847.75,364.88 833.34,362.62 821.02,364.20 808.48,368.83 790.06,378.08 771.15,395.15"/>
    </edge>
    <edge id="153189949" from="1659040831" to="1659040645" priority="13" type="highway.motorway" spreadType="center" shape="706.23,420.11 849.92,272.10 999.52,126.84 1133.59,0.00">
        <lane id="153189949_0" index="0" speed="33.33" length="599.37" shape="705.05,418.96 848.74,270.95 998.37,125.66 1132.46,-1.20"/>
        <lane id="153189949_1" index="1" speed="33.33" length="599.37" shape="707.41,421.26 851.10,273.25 1000.67,128.02 1134.72,1.20"/>
    </edge>
    <edge id="153189955" from="1659040788" to="1659040835" priority="12" type="highway.motorway_link" spreadType="center" shape="716.62,391.36 719.68,382.29 736.57,360.51 742.86,340.27 744.52,328.52 741.75,312.00 736.27,298.58 727.15,285.61 718.18,276.80 707.28,270.16 690.45,264.40 678.23,263.38 666.24,264.03 653.76,267.32 640.86,273.91 628.10,284.69 620.89,295.76 614.77,309.84 612.42,321.20 613.13,339.60 620.20,358.62 634.27,377.22 646.77,388.59 669.89,404.61 674.11,411.27">
        <lane id="153189955_0" index="0" speed="33.33" length="366.47" shape="719.34,383.30 719.68,382.29 736.57,360.51 742.86,340.27 744.52,328.52 741.75,312.00 736.27,298.58 727.15,285.61 718.18,276.80 707.28,270.16 690.45,264.40 678.23,263.38 666.24,264.03 653.76,267.32 640.86,273.91 628.10,284.69 620.89,295.76 614.77,309.84 612.42,321.20 613.13,339.60 620.20,358.62 634.27,377.22 646.77,388.59 669.04,404.02"/>
    </edge>
    <edge id="153189975" from="1659041103" to="1285390101" priority="12" type="highway.motorway_link" spreadType="center">
        <lane id="153189975_0" index="0" speed="22.22" length="377.81" shape="353.52,779.32 610.62,502.48"/>
    </edge>
    <edge id="153189984" from="1659040809" to="1659040788" priority="12" type="highway.motorway_link" spreadType="center">
        <lane id="153189984_0" index="0" speed="33.33" length="31.86" shape="694.53,412.02 716.58,389.02"/>
        <lane id="153189984_1" index="1" speed="33.33" length="31.86" shape="696.91,414.30 718.96,391.31"/>
    </edge>
    <edge id="153189987" from="1285390101" to="2113031281" priority="12" type="highway.motorway_link" spreadType="center">
        <lane id="153189987_0" index="0" speed="33.33" length="30.48" shape="609.39,501.33 630.27,479.12"/>
        <lane id="153189987_1" index="1" speed="33.33" length="30.48" shape="611.80,503.59 632.67,481.39"/>
    </edge>
    <edge id="153190012" from="1659040839" to="1285390101" priority="12" type="highway.motorway_link" spreadType="center" shape="599.99,412.07 588.25,409.37 569.72,400.75 553.71,397.45 544.07,397.48 532.71,399.73 518.95,404.81 507.65,412.27 501.68,417.89 495.49,425.60 491.95,431.43 489.11,437.81 486.63,443.91 485.10,449.68 483.43,461.99 484.22,472.92 486.78,483.18 490.19,491.90 495.45,500.62 501.07,507.54 505.76,512.45 511.45,516.92 517.21,521.03 523.63,524.34 530.07,526.55 537.39,528.40 544.21,529.60 551.57,529.61 560.77,528.60 570.43,526.19 580.03,522.15 589.13,516.58 600.35,507.48 613.69,499.17">
        <lane id="153190012_0" index="0" speed="33.33" length="324.14" shape="599.74,412.01 588.25,409.37 569.72,400.75 553.71,397.45 544.07,397.48 532.71,399.73 518.95,404.81 507.65,412.27 501.68,417.89 495.49,425.60 491.95,431.43 489.11,437.81 486.63,443.91 485.10,449.68 483.43,461.99 484.22,472.92 486.78,483.18 490.19,491.90 495.45,500.62 501.07,507.54 505.76,512.45 511.45,516.92 517.21,521.03 523.63,524.34 530.07,526.55 537.39,528.40 544.21,529.60 551.57,529.61 560.77,528.60 570.43,526.19 580.03,522.15 589.13,516.58 600.35,507.48 606.77,503.48"/>
    </edge>
    <edge id="153190017" from="1659040662" to="1659040835" priority="12" type="highway.motorway_link" spreadType="center" shape="299.74,166.29 383.37,219.07 400.91,230.83 524.86,313.30 674.11,411.27">
        <lane id="153190017_0" index="0" speed="33.33" length="438.51" shape="299.74,166.29 383.37,219.07 400.91,230.83 524.86,313.30 666.66,406.38"/>
    </edge>
    <edge id="153190025" from="1659040788" to="1659040654" priority="12" type="highway.motorway_link" spreadType="center" shape="716.62,391.36 759.74,347.30 772.13,332.11 838.62,265.67 998.92,110.56">
        <lane id="153190025_0" index="0" speed="33.33" length="389.80" shape="722.57,385.28 759.74,347.30 772.13,332.11 838.62,265.67 998.92,110.56"/>
    </edge>
    <edge id="153190030" from="1658965310" to="1659041102" priority="12" type="highway.motorway_link" spreadType="center" shape="653.02,513.44 632.39,535.37 623.15,545.30 589.07,582.39 494.82,685.24 403.13,783.73">
        <lane id="153190030_0" index="0" speed="33.33" length="366.62" shape="652.00,514.53 632.39,535.37 623.15,545.30 589.07,582.39 494.82,685.24 403.13,783.73"/>
    </edge>
    <edge id="17098081" from="30397945" to="1659040831" priority="13" type="highway.motorway" spreadType="center" shape="664.71,463.94 698.14,428.42 706.23,420.11">
        <lane id="17098081_0" index="0" speed="33.33" length="60.38" shape="663.51,462.81 696.94,427.29 705.05,418.96"/>
        <lane id="17098081_1" index="1" speed="33.33" length="60.38" shape="665.91,465.07 699.34,429.55 707.41,421.26"/>
    </edge>
    <edge id="189597495" from="2001841184" to="1658965318" priority="13" type="highway.motorway" spreadType="center" shape="1001.46,630.53 1067.28,672.77 1158.30,730.24 1249.25,786.89">
        <lane id="189597495_0" index="0" speed="44.44" length="242.87" shape="1003.24,627.75 1069.06,669.99 1160.06,727.45 1208.44,757.58"/>
        <lane id="189597495_1" index="1" speed="44.44" length="242.87" shape="1001.46,630.53 1067.28,672.77 1158.30,730.24 1206.70,760.38"/>
        <lane id="189597495_2" index="2" speed="44.44" length="242.87" shape="999.68,633.31 1065.50,675.55 1156.54,733.03 1204.95,763.19"/>
    </edge>
    <edge id="189604289" from="1658965318" to="2024041878" priority="13" type="highway.motorway" spreadType="center" shape="1249.25,786.89 1371.59,864.21 1493.50,941.80">
        <lane id="189604289_0" index="0" speed="44.44" length="290.06" shape="1249.93,781.46 1374.23,860.03 1494.89,936.82"/>
        <lane id="189604289_1" index="1" speed="44.44" length="290.06" shape="1248.17,784.25 1372.47,862.82 1493.12,939.60"/>
        <lane id="189604289_2" index="2" speed="44.44" length="290.06" shape="1246.40,787.04 1370.71,865.60 1491.35,942.39"/>
        <lane id="189604289_3" index="3" speed="44.44" length="290.06" shape="1244.64,789.83 1368.95,868.39 1489.58,945.17"/>
    </edge>
    <edge id="191842213" from="2024041878" to="1658939360" priority="13" type="highway.motorway" spreadType="center" shape="1493.50,941.80 1661.41,1047.05 1848.14,1161.33 2012.58,1269.41 2121.87,1337.32">
        <lane id="191842213_0" index="0" speed="44.44" length="741.03" shape="1496.52,939.80 1663.16,1044.25 1849.86,1158.52 2014.39,1266.65 2123.50,1334.45"/>
        <lane id="191842213_1" index="1" speed="44.44" length="741.03" shape="1494.77,942.60 1661.41,1047.05 1848.14,1161.33 2012.58,1269.41 2121.87,1337.32"/>
        <lane id="191842213_2" index="2" speed="44.44" length="741.03" shape="1493.02,945.39 1659.66,1049.85 1846.42,1164.14 2010.77,1272.17 2120.20,1340.16"/>
    </edge>
    <edge id="201283198" from="1658965317" to="1658965318" priority="12" type="highway.motorway_link" spreadType="center" shape="1112.35,686.51 1216.00,756.78 1243.89,774.48 1249.25,786.89">
        <lane id="201283198_0" index="0" speed="33.33" length="138.92" shape="1098.66,675.23 1214.44,753.73"/>
        <lane id="201283198_1" index="1" speed="33.33" length="138.92" shape="1096.80,677.96 1210.99,755.38"/>
    </edge>
    <edge id="201285010" from="2112411743" to="1658965310" priority="12" type="highway.motorway_link" spreadType="center">
        <lane id="201285010_0" index="0" speed="33.33" length="47.97" shape="687.46,477.92 655.24,513.44"/>
        <lane id="201285010_1" index="1" speed="33.33" length="47.97" shape="685.04,475.68 652.80,511.23"/>
    </edge>
    <edge id="201285011" from="2112411742" to="1659040809" priority="12" type="highway.motorway_link" spreadType="center">
        <lane id="201285011_0" index="0" speed="33.33" length="61.52" shape="651.92,456.40 694.53,412.02"/>
        <lane id="201285011_1" index="1" speed="33.33" length="61.52" shape="654.30,458.68 696.91,414.30"/>
    </edge>
    <edge id="201963249" from="1658965289" to="1658965297" priority="12" type="highway.motorway_link" spreadType="center">
        <lane id="201963249_0" index="0" speed="33.33" length="51.76" shape="765.49,398.49 729.06,435.26"/>
        <lane id="201963249_1" index="1" speed="33.33" length="51.76" shape="763.14,396.17 726.72,432.94"/>
    </edge>
    <edge id="201967353" from="2113031281" to="2112411742" priority="12" type="highway.motorway_link" spreadType="center">
        <lane id="201967353_0" index="0" speed="33.33" length="31.38" shape="630.28,479.12 651.92,456.40"/>
        <lane id="201967353_1" index="1" speed="33.33" length="31.38" shape="632.66,481.40 654.30,458.68"/>
    </edge>
    <edge id="35136848" from="1659040550" to="30397945" priority="13" type="highway.motorway" spreadType="center" shape="280.05,878.87 324.64,833.13 467.33,670.12 664.71,463.94">
        <lane id="35136848_0" index="0" speed="33.33" length="565.95" shape="278.87,877.72 323.46,831.98 466.09,669.03 663.52,462.80"/>
        <lane id="35136848_1" index="1" speed="33.33" length="565.95" shape="281.23,880.02 325.82,834.28 468.57,671.21 665.90,465.08"/>
    </edge>
    <edge id="4086683" from="21721178" to="1659041110" priority="13" type="highway.motorway" spreadType="center" shape="675.65,471.10 620.83,529.21 405.15,762.61 296.74,890.50">
        <lane id="4086683_0" index="0" speed="33.33" length="565.35" shape="676.85,472.23 622.03,530.34 406.36,763.73 298.00,891.57"/>
        <lane id="4086683_1" index="1" speed="33.33" length="565.35" shape="674.46,469.95 619.63,528.08 403.94,761.49 295.48,889.43"/>
    </edge>
    <edge id="4086685" from="1658965296" to="21721178" priority="13" type="highway.motorway" spreadType="center" shape="717.76,427.40 709.75,436.01 675.65,471.10">
        <lane id="4086685_0" index="0" speed="33.33" length="60.70" shape="718.97,428.52 710.96,437.13 676.83,472.25"/>
        <lane id="4086685_1" index="1" speed="33.33" length="60.70" shape="716.57,426.26 708.54,434.89 674.47,469.95"/>
    </edge>

    <tlLogic id="1658965318" type="static" programID="0" offset="0">
        <phase duration="2" state="yyy"/>
        <phase duration="10000" state="rrr"/>
    </tlLogic>
    <tlLogic id="1658965318" type="static" programID="1" offset="0">
        <phase duration="2" state="yyy"/>
        <phase duration="10000" state="ggg"/>
    </tlLogic>

    <junction id="1285389396" type="unregulated" x="272.55" y="199.05" incLanes="145354804_0" intLanes="" shape="271.67,200.39 273.43,197.71"/>
    <junction id="1285390101" type="priority" x="613.69" y="499.17" incLanes="153190012_0 153189975_0" intLanes=":1285390101_0_0 :1285390101_1_0" shape="612.96,504.69 608.23,500.23 605.93,502.12 607.62,504.84">
        <request index="0" response="00" foes="00" cont="0"/>
        <request index="1" response="00" foes="00" cont="0"/>
    </junction>
    <junction id="1587826179" type="unregulated" x="166.09" y="106.27" incLanes="" intLanes="" shape="166.09,106.27"/>
    <junction id="1658939360" type="priority" x="2121.87" y="1337.32" incLanes="191842213_0 191842213_1 191842213_2" intLanes=":1658939360_0_0 :1658939360_0_1 :1658939360_0_2" shape="2119.40,1341.55 2124.30,1333.07 2124.48,1333.17 2119.31,1341.50">
        <request index="0" response="000" foes="000" cont="0"/>
        <request index="1" response="000" foes="000" cont="0"/>
        <request index="2" response="000" foes="000" cont="0"/>
    </junction>
    <junction id="1658939377" type="priority" x="2132.97" y="1343.74" incLanes="153177809_0 153177809_1 153177809_2" intLanes=":1658939377_0_0 :1658939377_0_1 :1658939377_0_2" shape="2130.63,1348.05 2135.27,1339.41 2135.44,1339.51 2130.54,1347.99">
        <request index="0" response="000" foes="000" cont="0"/>
        <request index="1" response="000" foes="000" cont="0"/>
        <request index="2" response="000" foes="000" cont="0"/>
    </junction>
    <junction id="1658965247" type="unregulated" x="1142.81" y="12.65" incLanes="" intLanes="" shape="1140.64,10.23 1144.98,15.07"/>
    <junction id="1658965271" type="unregulated" x="1037.46" y="128.11" incLanes="" intLanes="" shape="1036.34,126.97 1038.58,129.25 1036.18,127.15 1038.74,129.07"/>
    <junction id="1658965281" type="unregulated" x="535.71" y="337.09" incLanes="" intLanes="" shape="533.09,341.23 538.33,332.95"/>
    <junction id="1658965289" type="priority" x="763.50" y="398.15" incLanes="153180757_0 145354802_0" intLanes=":1658965289_0_0 :1658965289_1_0" shape="771.69,396.81 770.61,393.48 768.32,391.16 762.01,395.04 766.62,399.61">
        <request index="0" response="00" foes="00" cont="0"/>
        <request index="1" response="00" foes="00" cont="0"/>
    </junction>
    <junction id="1658965296" type="priority" x="717.76" y="427.40" incLanes="153180750_0 153180750_1" intLanes=":1658965296_0_0 :1658965296_0_1" shape="720.07,429.69 715.43,425.14 720.15,429.60">
        <request index="0" response="00" foes="00" cont="0"/>
        <request index="1" response="00" foes="00" cont="0"/>
    </junction>
    <junction id="1658965297" type="priority" x="727.89" y="434.10" incLanes="201963249_0 201963249_1" intLanes=":1658965297_0_0 :1658965297_0_1" shape="730.20,436.39 725.58,431.81 730.22,436.37">
        <request index="0" response="00" foes="00" cont="0"/>
        <request index="1" response="00" foes="00" cont="0"/>
    </junction>
    <junction id="1658965305" type="priority" x="777.49" y="477.56" incLanes="153180756_0 153180756_1" intLanes=":1658965305_0_0 :1658965305_1_0" shape="782.35,482.46 784.04,479.75 784.26,478.90 784.14,475.70 779.57,475.03 776.12,480.54">
        <request index="0" response="00" foes="00" cont="0"/>
        <request index="1" response="00" foes="00" cont="0"/>
    </junction>
    <junction id="1658965310" type="priority" x="653.02" y="513.44" incLanes="201285010_0 201285010_1" intLanes=":1658965310_0_0" shape="656.43,514.52 651.61,510.15 650.83,513.43 653.16,515.62">
        <request index="0" response="0" foes="0" cont="0"/>
    </junction>
    <junction id="1658965317" type="priority" x="1112.35" y="686.51" incLanes="153180751_0 153180753_0" intLanes=":1658965317_0_0 :1658965317_1_0" shape="1095.91,679.29 1099.55,673.91 1097.15,672.12 1095.13,674.61">
        <request index="0" response="00" foes="00" cont="0"/>
        <request index="1" response="00" foes="00" cont="0"/>
    </junction>
    <junction id="1658965318" type="traffic_light" x="1249.25" y="786.89" incLanes="201283198_0 201283198_1 189597495_0 189597495_1 189597495_2" intLanes=":1658965318_0_0 :1658965318_0_1 :1658965318_0_2 :1658965318_3_0 :1658965318_3_1 :1658965318_3_2" shape="1243.79,791.18 1250.78,780.11 1216.12,752.93 1209.32,756.18 1204.11,764.54">
        <request index="0" response="000000" foes="111000" cont="0"/>
        <request index="1" response="000000" foes="111000" cont="0"/>
        <request index="2" response="000000" foes="111000" cont="0"/>
        <request index="3" response="000111" foes="000111" cont="0"/>
        <request index="4" response="000111" foes="000111" cont="0"/>
        <request index="5" response="000111" foes="000111" cont="0"/>
    </junction>