<?xml version="1.0" encoding="UTF-8"?>

<additional xmlns:xsi="http://www.w3.org/2001/XMLSchema-instance" xsi:noNamespaceSchemaLocation="http://sumo.dlr.de/xsd/additional_file.xsd">

    <location netOffset="-362563.54,-4832311.19" convBoundary="0.00,0.00,2064.54,1284.45" origBoundary="13.296064,43.631354,13.321826,43.642858" projParameter="+proj=utm +zone=33 +ellps=WGS84 +datum=WGS84 +units=m +no_defs"/>

	<parkingArea id="ParkAreaA" lane="a_0" startPos="200" endPos="250" roadsideCapacity="5" angle="45" length="30"/>
	<parkingArea id="ParkAreaB" lane="b_0" startPos="240" endPos="260" roadsideCapacity="0" width="5" length="10" angle="30">
		<space x="853" y="623"/>
		<space x="863" y="618"/>
		<space x="873" y="613"/>
		<space x="883" y="608"/>
		<space x="893" y="603"/>
		<space x="848" y="611" width="4" length="8" angle="120"/>
		<space x="858" y="606" width="4" length="8" angle="120"/>
		<space x="868" y="601" width="4" length="8" angle="120"/>
		<space x="878" y="596" width="4" length="8" angle="120"/>
		<space x="888" y="591" width="4" length="8" angle="120"/>
	</parkingArea>
	
</additional>
