<additional xmlns:xsi="http://www.w3.org/2001/XMLSchema-instance" xsi:noNamespaceSchemaLocation="http://sumo.dlr.de/xsd/additional_file.xsd">

	<edgeData id="dump_15" freq="15" file="aggregated_15.xml" begin="0" end="119"/>
	<edgeData id="dump_60" freq="60" file="aggregated_60.xml" begin="0" end="119"/>
	<edgeData id="dump_300" freq="300" file="aggregated_300.xml" begin="0" end="119"/>
	<edgeData id="dump_900" freq="900" file="aggregated_900.xml" begin="0" end="119"/>

	<edgeData id="dump_15" freq="15" file="aggregated_15.xml" begin="900" end="1019"/>
	<edgeData id="dump_60" freq="60" file="aggregated_60.xml" begin="900" end="1019"/>
	<edgeData id="dump_300" freq="300" file="aggregated_300.xml" begin="900" end="1019"/>
	<edgeData id="dump_900" freq="900" file="aggregated_900.xml" begin="900" end="1019"/>

	<laneData id="dump_15" freq="15" file="aggregated_15.xml" begin="0" end="119"/>
	<laneData id="dump_60" freq="60" file="aggregated_60.xml" begin="0" end="119"/>
	<laneData id="dump_300" freq="300" file="aggregated_300.xml" begin="0" end="119"/>
	<laneData id="dump_900" freq="900" file="aggregated_900.xml" begin="0" end="119"/>

</additional>
