<routes>

    <vTypeDistribution id="DEFAULT_VEHTYPE">
        <vType probability="0.2" id="truck" guiShape="truck" length="12.0" minGap="2.5" speedFactor="1" speedDev="0.1" maxSpeed= "27.78"/> 
        <vType probability="0.8" id="passenger" length="5.0" minGap="2.5" speedFactor="1" speedDev="0.1" /> 
    </vTypeDistribution>
    
    <route id="highway" edges="gneE2 offramp gneE3 gneE7 gneE8 gneE11" color="yellow"/>
    <route id="offramp" edges="gneE2 offramp gneE4 gneE16 gneE18 gneE9" color="green"/>
    <route id="onramp" edges="gneE15 gneE17 gneE18 gneE13 gneE14 gneE7 gneE8 gneE11" color="magenta"/>

    <flow id="highway1" route="highway" begin="0" end="90000" vehsPerHour="2500" departSpeed="max" departLane="free" departPos="free"/>
    <flow id="offramp"  route="offramp" begin="0" end="90000" probability="0.22" departSpeed="max" departLane="0" departPos="random"/>
    <flow id="onramp"   route="onramp"  begin="0" end="90000" probability="0.22" departSpeed="max"/>

    <!-- increase flow after some time -->
    <flow id="highway2" route="highway" begin="200" end="90000" probability="0.4" departSpeed="max" departLane="free" departPos="free"/>
    <flow id="offramp2" route="offramp" begin="200" end="90000" probability="0.05" departSpeed="max" departLane="0" departPos="random"/>
    <flow id="onramp2"  route="onramp"  begin="200" end="90000" probability="0.04" departSpeed="max"/>

    <!-- increase flow after some time -->
    <flow id="highway3" route="highway" begin="300" end="90000" probability="0.4" departSpeed="max" departLane="free" departPos="free"/>
    <flow id="offramp3" route="offramp" begin="300" end="90000" probability="0.01" departSpeed="max" departLane="0" departPos="random"/>
    <flow id="onramp3"  route="onramp"  begin="300" end="90000" probability="0.02" departSpeed="max"/>
    
    
</routes>
