<?xml version="1.0" encoding="UTF-8"?>

<!-- generated on 08/28/13 08:46:48 by SUMO duarouter Version 0.18.0
<?xml version="1.0" encoding="UTF-8"?>

<configuration xmlns:xsi="http://www.w3.org/2001/XMLSchema-instance" xsi:noNamespaceSchemaLocation="https://sumo.sf.net/xsd/duarouterConfiguration.xsd">

    <input>
        <net-file value="data/rilsa3.net.xml"/>
        <flow-files value="data/input_flows.flows.xml"/>
    </input>

    <output>
        <output-file value="data/genroutes.rou.xml"/>
        <vtype-output value=""/>
    </output>

    <report>
        <verbose value="true"/>
        <no-step-log value="true"/>
    </report>

</configuration>
-->

<routes xmlns:xsi="http://www.w3.org/2001/XMLSchema-instance" xsi:noNamespaceSchemaLocation="https://sumo.sf.net/xsd/routes_file.xsd">
    <vehicle id="em2mnLKW.0" type="LKW" depart="0.00" departLane="best" departPos="base" departSpeed="max" arrivalPos="-1.00">
        <route edges="em mn"/>
    </vehicle>
    <vehicle id="em2mnPKW.0" type="PKW" depart="0.00" departLane="best" departPos="base" departSpeed="max" arrivalPos="-1.00">
        <route edges="em mn"/>
    </vehicle>
    <vehicle id="em2msLKW.0" type="LKW" depart="0.00" departLane="best" departPos="base" departSpeed="max" arrivalPos="-1.00">
        <route edges="em ms"/>
    </vehicle>
    <vehicle id="em2msPKW.0" type="PKW" depart="0.00" departLane="best" departPos="base" departSpeed="max" arrivalPos="-1.00">
        <route edges="em ms"/>
    </vehicle>
    <vehicle id="em2mwLKW.0" type="LKW" depart="0.00" departLane="best" departPos="base" departSpeed="max" arrivalPos="-1.00">
        <route edges="em mw"/>
    </vehicle>
    <vehicle id="em2mwPKW.0" type="PKW" depart="0.00" departLane="best" departPos="base" departSpeed="max" arrivalPos="-1.00">
        <route edges="em mw"/>
    </vehicle>
    <vehicle id="nm2meLKW.0" type="LKW" depart="0.00" departLane="best" departPos="base" departSpeed="max" arrivalPos="-1.00">
        <route edges="nm me"/>
    </vehicle>
    <vehicle id="nm2mePKW.0" type="PKW" depart="0.00" departLane="best" departPos="base" departSpeed="max" arrivalPos="-1.00">
        <route edges="nm me"/>
    </vehicle>
    <vehicle id="nm2msLKW.0" type="LKW" depart="0.00" departLane="best" departPos="base" departSpeed="max" arrivalPos="-1.00">
        <route edges="nm ms"/>
    </vehicle>
    <vehicle id="nm2msPKW.0" type="PKW" depart="0.00" departLane="best" departPos="base" departSpeed="max" arrivalPos="-1.00">
        <route edges="nm ms"/>
    </vehicle>
    <vehicle id="nm2mwLKW.0" type="LKW" depart="0.00" departLane="best" departPos="base" departSpeed="max" arrivalPos="-1.00">
        <route edges="nm mw"/>
    </vehicle>
    <vehicle id="nm2mwPKW.0" type="PKW" depart="0.00" departLane="best" departPos="base" departSpeed="max" arrivalPos="-1.00">
        <route edges="nm mw"/>
    </vehicle>
    <vehicle id="sm2meLKW.0" type="LKW" depart="0.00" departLane="best" departPos="base" departSpeed="max" arrivalPos="-1.00">
        <route edges="sm me"/>
    </vehicle>
    <vehicle id="sm2mePKW.0" type="PKW" depart="0.00" departLane="best" departPos="base" departSpeed="max" arrivalPos="-1.00">
        <route edges="sm me"/>
    </vehicle>
    <vehicle id="sm2mnLKW.0" type="LKW" depart="0.00" departLane="best" departPos="base" departSpeed="max" arrivalPos="-1.00">
        <route edges="sm mn"/>
    </vehicle>
    <vehicle id="sm2mnPKW.0" type="PKW" depart="0.00" departLane="best" departPos="base" departSpeed="max" arrivalPos="-1.00">
        <route edges="sm mn"/>
    </vehicle>
    <vehicle id="sm2mwLKW.0" type="LKW" depart="0.00" departLane="best" departPos="base" departSpeed="max" arrivalPos="-1.00">
        <route edges="sm mw"/>
    </vehicle>
    <vehicle id="sm2mwPKW.0" type="PKW" depart="0.00" departLane="best" departPos="base" departSpeed="max" arrivalPos="-1.00">
        <route edges="sm mw"/>
    </vehicle>
    <vehicle id="wm2meLKW.0" type="LKW" depart="0.00" departLane="best" departPos="base" departSpeed="max" arrivalPos="-1.00">
        <route edges="wm me"/>
    </vehicle>
    <vehicle id="wm2mePKW.0" type="PKW" depart="0.00" departLane="best" departPos="base" departSpeed="max" arrivalPos="-1.00">
        <route edges="wm me"/>
    </vehicle>
    <vehicle id="wm2mnLKW.0" type="LKW" depart="0.00" departLane="best" departPos="base" departSpeed="max" arrivalPos="-1.00">
        <route edges="wm mn"/>
    </vehicle>
    <vehicle id="wm2mnPKW.0" type="PKW" depart="0.00" departLane="best" departPos="base" departSpeed="max" arrivalPos="-1.00">
        <route edges="wm mn"/>
    </vehicle>
    <vehicle id="wm2msLKW.0" type="LKW" depart="0.00" departLane="best" departPos="base" departSpeed="max" arrivalPos="-1.00">
        <route edges="wm ms"/>
    </vehicle>
    <vehicle id="wm2msPKW.0" type="PKW" depart="0.00" departLane="best" departPos="base" departSpeed="max" arrivalPos="-1.00">
        <route edges="wm ms"/>
    </vehicle>
    <vehicle id="em2mwPKW.1" type="PKW" depart="7.00" departLane="best" departPos="base" departSpeed="max" arrivalPos="-1.00">
        <route edges="em mw"/>
    </vehicle>
    <vehicle id="wm2mePKW.1" type="PKW" depart="8.11" departLane="best" departPos="base" departSpeed="max" arrivalPos="-1.00">
        <route edges="wm me"/>
    </vehicle>
    <vehicle id="sm2mePKW.1" type="PKW" depart="9.78" departLane="best" departPos="base" departSpeed="max" arrivalPos="-1.00">
        <route edges="sm me"/>
    </vehicle>
    <vehicle id="sm2mnPKW.1" type="PKW" depart="10.06" departLane="best" departPos="base" departSpeed="max" arrivalPos="-1.00">
        <route edges="sm mn"/>
    </vehicle>
    <vehicle id="nm2msPKW.1" type="PKW" depart="10.08" departLane="best" departPos="base" departSpeed="max" arrivalPos="-1.00">
        <route edges="nm ms"/>
    </vehicle>
    <vehicle id="em2mwPKW.2" type="PKW" depart="14.01" departLane="best" departPos="base" departSpeed="max" arrivalPos="-1.00">
        <route edges="em mw"/>
    </vehicle>
    <vehicle id="wm2mePKW.2" type="PKW" depart="16.22" departLane="best" departPos="base" departSpeed="max" arrivalPos="-1.00">
        <route edges="wm me"/>
    </vehicle>
    <vehicle id="sm2mePKW.2" type="PKW" depart="19.56" departLane="best" departPos="base" departSpeed="max" arrivalPos="-1.00">
        <route edges="sm me"/>
    </vehicle>
    <vehicle id="sm2mnPKW.2" type="PKW" depart="20.11" departLane="best" departPos="base" departSpeed="max" arrivalPos="-1.00">
        <route edges="sm mn"/>
    </vehicle>
    <vehicle id="nm2msPKW.2" type="PKW" depart="20.17" departLane="best" departPos="base" departSpeed="max" arrivalPos="-1.00">
        <route edges="nm ms"/>
    </vehicle>
    <vehicle id="em2msPKW.1" type="PKW" depart="20.57" departLane="best" departPos="base" departSpeed="max" arrivalPos="-1.00">
        <route edges="em ms"/>
    </vehicle>
    <vehicle id="em2mwPKW.3" type="PKW" depart="21.01" departLane="best" departPos="base" departSpeed="max" arrivalPos="-1.00">
        <route edges="em mw"/>
    </vehicle>
    <vehicle id="wm2mePKW.3" type="PKW" depart="24.32" departLane="best" departPos="base" departSpeed="max" arrivalPos="-1.00">
        <route edges="wm me"/>
    </vehicle>
    <vehicle id="em2mwPKW.4" type="PKW" depart="28.01" departLane="best" departPos="base" departSpeed="max" arrivalPos="-1.00">
        <route edges="em mw"/>
    </vehicle>
    <vehicle id="sm2mePKW.3" type="PKW" depart="29.35" departLane="best" departPos="base" departSpeed="max" arrivalPos="-1.00">
        <route edges="sm me"/>
    </vehicle>
    <vehicle id="sm2mnPKW.3" type="PKW" depart="30.16" departLane="best" departPos="base" departSpeed="max" arrivalPos="-1.00">
        <route edges="sm mn"/>
    </vehicle>
    <vehicle id="nm2msPKW.3" type="PKW" depart="30.25" departLane="best" departPos="base" departSpeed="max" arrivalPos="-1.00">
        <route edges="nm ms"/>
    </vehicle>
    <vehicle id="wm2mePKW.4" type="PKW" depart="32.43" departLane="best" departPos="base" departSpeed="max" arrivalPos="-1.00">
        <route edges="wm me"/>
    </vehicle>
    <vehicle id="em2mwPKW.5" type="PKW" depart="35.02" departLane="best" departPos="base" departSpeed="max" arrivalPos="-1.00">
        <route edges="em mw"/>
    </vehicle>
    <vehicle id="sm2mePKW.4" type="PKW" depart="39.13" departLane="best" departPos="base" departSpeed="max" arrivalPos="-1.00">
        <route edges="sm me"/>
    </vehicle>
    <vehicle id="sm2mnPKW.4" type="PKW" depart="40.22" departLane="best" departPos="base" departSpeed="max" arrivalPos="-1.00">
        <route edges="sm mn"/>
    </vehicle>
    <vehicle id="nm2msPKW.4" type="PKW" depart="40.34" departLane="best" departPos="base" departSpeed="max" arrivalPos="-1.00">
        <route edges="nm ms"/>
    </vehicle>
    <vehicle id="wm2mePKW.5" type="PKW" depart="40.54" departLane="best" departPos="base" departSpeed="max" arrivalPos="-1.00">
        <route edges="wm me"/>
    </vehicle>
    <vehicle id="em2msPKW.2" type="PKW" depart="41.14" departLane="best" departPos="base" departSpeed="max" arrivalPos="-1.00">
        <route edges="em ms"/>
    </vehicle>
    <vehicle id="em2mwPKW.6" type="PKW" depart="42.02" departLane="best" departPos="base" departSpeed="max" arrivalPos="-1.00">
        <route edges="em mw"/>
    </vehicle>
    <vehicle id="wm2mePKW.6" type="PKW" depart="48.65" departLane="best" departPos="base" departSpeed="max" arrivalPos="-1.00">
        <route edges="wm me"/>
    </vehicle>
    <vehicle id="sm2mePKW.5" type="PKW" depart="48.91" departLane="best" departPos="base" departSpeed="max" arrivalPos="-1.00">
        <route edges="sm me"/>
    </vehicle>
    <vehicle id="em2mwPKW.7" type="PKW" depart="49.02" departLane="best" departPos="base" departSpeed="max" arrivalPos="-1.00">
        <route edges="em mw"/>
    </vehicle>
    <vehicle id="em2mnPKW.1" type="PKW" depart="49.31" departLane="best" departPos="base" departSpeed="max" arrivalPos="-1.00">
        <route edges="em mn"/>
    </vehicle>
    <vehicle id="sm2mnPKW.5" type="PKW" depart="50.27" departLane="best" departPos="base" departSpeed="max" arrivalPos="-1.00">
        <route edges="sm mn"/>
    </vehicle>
    <vehicle id="nm2msPKW.5" type="PKW" depart="50.42" departLane="best" departPos="base" departSpeed="max" arrivalPos="-1.00">
        <route edges="nm ms"/>
    </vehicle>
    <vehicle id="em2mwPKW.8" type="PKW" depart="56.02" departLane="best" departPos="base" departSpeed="max" arrivalPos="-1.00">
        <route edges="em mw"/>
    </vehicle>
    <vehicle id="wm2mePKW.7" type="PKW" depart="56.76" departLane="best" departPos="base" departSpeed="max" arrivalPos="-1.00">
        <route edges="wm me"/>
    </vehicle>
    <vehicle id="wm2mnPKW.1" type="PKW" depart="58.06" departLane="best" departPos="base" departSpeed="max" arrivalPos="-1.00">
        <route edges="wm mn"/>
    </vehicle>
    <vehicle id="sm2mePKW.6" type="PKW" depart="58.69" departLane="best" departPos="base" departSpeed="max" arrivalPos="-1.00">
        <route edges="sm me"/>
    </vehicle>
    <vehicle id="sm2mnPKW.6" type="PKW" depart="60.33" departLane="best" departPos="base" departSpeed="max" arrivalPos="-1.00">
        <route edges="sm mn"/>
    </vehicle>
    <vehicle id="nm2msPKW.6" type="PKW" depart="60.50" departLane="best" departPos="base" departSpeed="max" arrivalPos="-1.00">
        <route edges="nm ms"/>
    </vehicle>
    <vehicle id="em2msPKW.3" type="PKW" depart="61.71" departLane="best" departPos="base" departSpeed="max" arrivalPos="-1.00">
        <route edges="em ms"/>
    </vehicle>
    <vehicle id="em2mwPKW.9" type="PKW" depart="63.03" departLane="best" departPos="base" departSpeed="max" arrivalPos="-1.00">
        <route edges="em mw"/>
    </vehicle>
    <vehicle id="wm2mePKW.8" type="PKW" depart="64.86" departLane="best" departPos="base" departSpeed="max" arrivalPos="-1.00">
        <route edges="wm me"/>
    </vehicle>
    <vehicle id="wm2msPKW.1" type="PKW" depart="66.67" departLane="best" departPos="base" departSpeed="max" arrivalPos="-1.00">
        <route edges="wm ms"/>
    </vehicle>
    <vehicle id="sm2mePKW.7" type="PKW" depart="68.47" departLane="best" departPos="base" departSpeed="max" arrivalPos="-1.00">
        <route edges="sm me"/>
    </vehicle>
    <vehicle id="nm2mePKW.1" type="PKW" depart="69.23" departLane="best" departPos="base" departSpeed="max" arrivalPos="-1.00">
        <route edges="nm me"/>
    </vehicle>
    <vehicle id="em2mwPKW.10" type="PKW" depart="70.03" departLane="best" departPos="base" departSpeed="max" arrivalPos="-1.00">
        <route edges="em mw"/>
    </vehicle>
    <vehicle id="sm2mnPKW.7" type="PKW" depart="70.39" departLane="best" departPos="base" departSpeed="max" arrivalPos="-1.00">
        <route edges="sm mn"/>
    </vehicle>
    <vehicle id="nm2msPKW.7" type="PKW" depart="70.59" departLane="best" departPos="base" departSpeed="max" arrivalPos="-1.00">
        <route edges="nm ms"/>
    </vehicle>
    <vehicle id="wm2mePKW.9" type="PKW" depart="72.97" departLane="best" departPos="base" departSpeed="max" arrivalPos="-1.00">
        <route edges="wm me"/>
    </vehicle>
    <vehicle id="em2mwPKW.11" type="PKW" depart="77.03" departLane="best" departPos="base" departSpeed="max" arrivalPos="-1.00">
        <route edges="em mw"/>
    </vehicle>
    <vehicle id="sm2mePKW.8" type="PKW" depart="78.26" departLane="best" departPos="base" departSpeed="max" arrivalPos="-1.00">
        <route edges="sm me"/>
    </vehicle>
    <vehicle id="sm2mnPKW.8" type="PKW" depart="80.44" departLane="best" departPos="base" departSpeed="max" arrivalPos="-1.00">
        <route edges="sm mn"/>
    </vehicle>
    <vehicle id="nm2msPKW.8" type="PKW" depart="80.67" departLane="best" departPos="base" departSpeed="max" arrivalPos="-1.00">
        <route edges="nm ms"/>
    </vehicle>
    <vehicle id="wm2mePKW.10" type="PKW" depart="81.08" departLane="best" departPos="base" departSpeed="max" arrivalPos="-1.00">
        <route edges="wm me"/>
    </vehicle>
    <vehicle id="sm2mnLKW.1" type="LKW" depart="81.82" departLane="best" departPos="base" departSpeed="max" arrivalPos="-1.00">
        <route edges="sm mn"/>
    </vehicle>
    <vehicle id="sm2mwPKW.1" type="PKW" depart="81.82" departLane="best" departPos="base" departSpeed="max" arrivalPos="-1.00">
        <route edges="sm mw"/>
    </vehicle>
    <vehicle id="em2msPKW.4" type="PKW" depart="82.28" departLane="best" departPos="base" departSpeed="max" arrivalPos="-1.00">
        <route edges="em ms"/>
    </vehicle>
    <vehicle id="em2mwPKW.12" type="PKW" depart="84.04" departLane="best" departPos="base" departSpeed="max" arrivalPos="-1.00">
        <route edges="em mw"/>
    </vehicle>
    <vehicle id="sm2mePKW.9" type="PKW" depart="88.04" departLane="best" departPos="base" departSpeed="max" arrivalPos="-1.00">
        <route edges="sm me"/>
    </vehicle>
    <vehicle id="wm2mePKW.11" type="PKW" depart="89.19" departLane="best" departPos="base" departSpeed="max" arrivalPos="-1.00">
        <route edges="wm me"/>
    </vehicle>
    <vehicle id="sm2mnPKW.9" type="PKW" depart="90.50" departLane="best" departPos="base" departSpeed="max" arrivalPos="-1.00">
        <route edges="sm mn"/>
    </vehicle>
    <vehicle id="nm2msPKW.9" type="PKW" depart="90.76" departLane="best" departPos="base" departSpeed="max" arrivalPos="-1.00">
        <route edges="nm ms"/>
    </vehicle>
    <vehicle id="em2mwPKW.13" type="PKW" depart="91.04" departLane="best" departPos="base" departSpeed="max" arrivalPos="-1.00">
        <route edges="em mw"/>
    </vehicle>
    <vehicle id="em2mwLKW.1" type="LKW" depart="94.74" departLane="best" departPos="base" departSpeed="max" arrivalPos="-1.00">
        <route edges="em mw"/>
    </vehicle>
    <vehicle id="wm2mePKW.12" type="PKW" depart="97.30" departLane="best" departPos="base" departSpeed="max" arrivalPos="-1.00">
        <route edges="wm me"/>
    </vehicle>
    <vehicle id="sm2mePKW.10" type="PKW" depart="97.82" departLane="best" departPos="base" departSpeed="max" arrivalPos="-1.00">
        <route edges="sm me"/>
    </vehicle>
    <vehicle id="em2mwPKW.14" type="PKW" depart="98.04" departLane="best" departPos="base" departSpeed="max" arrivalPos="-1.00">
        <route edges="em mw"/>
    </vehicle>
    <vehicle id="em2mnPKW.2" type="PKW" depart="98.63" departLane="best" departPos="base" departSpeed="max" arrivalPos="-1.00">
        <route edges="em mn"/>
    </vehicle>
    <vehicle id="sm2mnPKW.10" type="PKW" depart="100.55" departLane="best" departPos="base" departSpeed="max" arrivalPos="-1.00">
        <route edges="sm mn"/>
    </vehicle>
    <vehicle id="nm2msPKW.10" type="PKW" depart="100.84" departLane="best" departPos="base" departSpeed="max" arrivalPos="-1.00">
        <route edges="nm ms"/>
    </vehicle>
    <vehicle id="em2msPKW.5" type="PKW" depart="102.86" departLane="best" departPos="base" departSpeed="max" arrivalPos="-1.00">
        <route edges="em ms"/>
    </vehicle>
    <vehicle id="em2mwPKW.15" type="PKW" depart="105.05" departLane="best" departPos="base" departSpeed="max" arrivalPos="-1.00">
        <route edges="em mw"/>
    </vehicle>
    <vehicle id="wm2mePKW.13" type="PKW" depart="105.40" departLane="best" departPos="base" departSpeed="max" arrivalPos="-1.00">
        <route edges="wm me"/>
    </vehicle>
    <vehicle id="sm2mePKW.11" type="PKW" depart="107.60" departLane="best" departPos="base" departSpeed="max" arrivalPos="-1.00">
        <route edges="sm me"/>
    </vehicle>
    <vehicle id="sm2mnPKW.11" type="PKW" depart="110.61" departLane="best" departPos="base" departSpeed="max" arrivalPos="-1.00">
        <route edges="sm mn"/>
    </vehicle>
    <vehicle id="nm2msPKW.11" type="PKW" depart="110.92" departLane="best" departPos="base" departSpeed="max" arrivalPos="-1.00">
        <route edges="nm ms"/>
    </vehicle>
    <vehicle id="em2mwPKW.16" type="PKW" depart="112.05" departLane="best" departPos="base" departSpeed="max" arrivalPos="-1.00">
        <route edges="em mw"/>
    </vehicle>
    <vehicle id="wm2mePKW.14" type="PKW" depart="113.51" departLane="best" departPos="base" departSpeed="max" arrivalPos="-1.00">
        <route edges="wm me"/>
    </vehicle>
    <vehicle id="wm2mnPKW.2" type="PKW" depart="116.13" departLane="best" departPos="base" departSpeed="max" arrivalPos="-1.00">
        <route edges="wm mn"/>
    </vehicle>
    <vehicle id="nm2mwPKW.1" type="PKW" depart="116.13" departLane="best" departPos="base" departSpeed="max" arrivalPos="-1.00">
        <route edges="nm mw"/>
    </vehicle>
    <vehicle id="sm2mePKW.12" type="PKW" depart="117.38" departLane="best" departPos="base" departSpeed="max" arrivalPos="-1.00">
        <route edges="sm me"/>
    </vehicle>
    <vehicle id="em2mwPKW.17" type="PKW" depart="119.05" departLane="best" departPos="base" departSpeed="max" arrivalPos="-1.00">
        <route edges="em mw"/>
    </vehicle>
    <vehicle id="sm2mnPKW.12" type="PKW" depart="120.66" departLane="best" departPos="base" departSpeed="max" arrivalPos="-1.00">
        <route edges="sm mn"/>
    </vehicle>
    <vehicle id="nm2msPKW.12" type="PKW" depart="121.01" departLane="best" departPos="base" departSpeed="max" arrivalPos="-1.00">
        <route edges="nm ms"/>
    </vehicle>
    <vehicle id="wm2mePKW.15" type="PKW" depart="121.62" departLane="best" departPos="base" departSpeed="max" arrivalPos="-1.00">
        <route edges="wm me"/>
    </vehicle>
    <vehicle id="em2msPKW.6" type="PKW" depart="123.43" departLane="best" departPos="base" departSpeed="max" arrivalPos="-1.00">
        <route edges="em ms"/>
    </vehicle>
    <vehicle id="em2mwPKW.18" type="PKW" depart="126.05" departLane="best" departPos="base" departSpeed="max" arrivalPos="-1.00">
        <route edges="em mw"/>
    </vehicle>
    <vehicle id="sm2mePKW.13" type="PKW" depart="127.17" departLane="best" departPos="base" departSpeed="max" arrivalPos="-1.00">
        <route edges="sm me"/>
    </vehicle>
    <vehicle id="wm2meLKW.1" type="LKW" depart="128.57" departLane="best" departPos="base" departSpeed="max" arrivalPos="-1.00">
        <route edges="wm me"/>
    </vehicle>
    <vehicle id="wm2mePKW.16" type="PKW" depart="129.73" departLane="best" departPos="base" departSpeed="max" arrivalPos="-1.00">
        <route edges="wm me"/>
    </vehicle>
    <vehicle id="sm2mnPKW.13" type="PKW" depart="130.72" departLane="best" departPos="base" departSpeed="max" arrivalPos="-1.00">
        <route edges="sm mn"/>
    </vehicle>
    <vehicle id="nm2msPKW.13" type="PKW" depart="131.09" departLane="best" departPos="base" departSpeed="max" arrivalPos="-1.00">
        <route edges="nm ms"/>
    </vehicle>
    <vehicle id="em2mwPKW.19" type="PKW" depart="133.06" departLane="best" departPos="base" departSpeed="max" arrivalPos="-1.00">
        <route edges="em mw"/>
    </vehicle>
    <vehicle id="wm2msPKW.2" type="PKW" depart="133.33" departLane="best" departPos="base" departSpeed="max" arrivalPos="-1.00">
        <route edges="wm ms"/>
    </vehicle>
    <vehicle id="sm2mePKW.14" type="PKW" depart="136.95" departLane="best" departPos="base" departSpeed="max" arrivalPos="-1.00">
        <route edges="sm me"/>
    </vehicle>
    <vehicle id="wm2mePKW.17" type="PKW" depart="137.84" departLane="best" departPos="base" departSpeed="max" arrivalPos="-1.00">
        <route edges="wm me"/>
    </vehicle>
    <vehicle id="nm2mePKW.2" type="PKW" depart="138.46" departLane="best" departPos="base" departSpeed="max" arrivalPos="-1.00">
        <route edges="nm me"/>
    </vehicle>
    <vehicle id="nm2msLKW.1" type="LKW" depart="138.46" departLane="best" departPos="base" departSpeed="max" arrivalPos="-1.00">
        <route edges="nm ms"/>
    </vehicle>
    <vehicle id="em2mwPKW.20" type="PKW" depart="140.06" departLane="best" departPos="base" departSpeed="max" arrivalPos="-1.00">
        <route edges="em mw"/>
    </vehicle>
    <vehicle id="sm2mnPKW.14" type="PKW" depart="140.77" departLane="best" departPos="base" departSpeed="max" arrivalPos="-1.00">
        <route edges="sm mn"/>
    </vehicle>
    <vehicle id="nm2msPKW.14" type="PKW" depart="141.18" departLane="best" departPos="base" departSpeed="max" arrivalPos="-1.00">
        <route edges="nm ms"/>
    </vehicle>
    <vehicle id="em2msPKW.7" type="PKW" depart="144.00" departLane="best" departPos="base" departSpeed="max" arrivalPos="-1.00">
        <route edges="em ms"/>
    </vehicle>
    <vehicle id="wm2mePKW.18" type="PKW" depart="145.94" departLane="best" departPos="base" departSpeed="max" arrivalPos="-1.00">
        <route edges="wm me"/>
    </vehicle>
    <vehicle id="sm2mePKW.15" type="PKW" depart="146.73" departLane="best" departPos="base" departSpeed="max" arrivalPos="-1.00">
        <route edges="sm me"/>
    </vehicle>
    <vehicle id="em2mwPKW.21" type="PKW" depart="147.06" departLane="best" departPos="base" departSpeed="max" arrivalPos="-1.00">
        <route edges="em mw"/>
    </vehicle>
    <vehicle id="em2mnPKW.3" type="PKW" depart="147.94" departLane="best" departPos="base" departSpeed="max" arrivalPos="-1.00">
        <route edges="em mn"/>
    </vehicle>
    <vehicle id="sm2mnPKW.15" type="PKW" depart="150.83" departLane="best" departPos="base" departSpeed="max" arrivalPos="-1.00">
        <route edges="sm mn"/>
    </vehicle>
    <vehicle id="nm2msPKW.15" type="PKW" depart="151.26" departLane="best" departPos="base" departSpeed="max" arrivalPos="-1.00">
        <route edges="nm ms"/>
    </vehicle>
    <vehicle id="wm2mePKW.19" type="PKW" depart="154.05" departLane="best" departPos="base" departSpeed="max" arrivalPos="-1.00">
        <route edges="wm me"/>
    </vehicle>
    <vehicle id="em2mwPKW.22" type="PKW" depart="154.07" departLane="best" departPos="base" departSpeed="max" arrivalPos="-1.00">
        <route edges="em mw"/>
    </vehicle>
    <vehicle id="sm2mePKW.16" type="PKW" depart="156.51" departLane="best" departPos="base" departSpeed="max" arrivalPos="-1.00">
        <route edges="sm me"/>
    </vehicle>
    <vehicle id="sm2mnPKW.16" type="PKW" depart="160.88" departLane="best" departPos="base" departSpeed="max" arrivalPos="-1.00">
        <route edges="sm mn"/>
    </vehicle>
    <vehicle id="em2mwPKW.23" type="PKW" depart="161.07" departLane="best" departPos="base" departSpeed="max" arrivalPos="-1.00">
        <route edges="em mw"/>
    </vehicle>
    <vehicle id="nm2msPKW.16" type="PKW" depart="161.34" departLane="best" departPos="base" departSpeed="max" arrivalPos="-1.00">
        <route edges="nm ms"/>
    </vehicle>
    <vehicle id="wm2mePKW.20" type="PKW" depart="162.16" departLane="best" departPos="base" departSpeed="max" arrivalPos="-1.00">
        <route edges="wm me"/>
    </vehicle>
    <vehicle id="sm2mnLKW.2" type="LKW" depart="163.64" departLane="best" departPos="base" departSpeed="max" arrivalPos="-1.00">
        <route edges="sm mn"/>
    </vehicle>
    <vehicle id="sm2mwPKW.2" type="PKW" depart="163.64" departLane="best" departPos="base" departSpeed="max" arrivalPos="-1.00">
        <route edges="sm mw"/>
    </vehicle>
    <vehicle id="em2msPKW.8" type="PKW" depart="164.57" departLane="best" departPos="base" departSpeed="max" arrivalPos="-1.00">
        <route edges="em ms"/>
    </vehicle>
    <vehicle id="sm2mePKW.17" type="PKW" depart="166.29" departLane="best" departPos="base" departSpeed="max" arrivalPos="-1.00">
        <route edges="sm me"/>
    </vehicle>
    <vehicle id="em2mwPKW.24" type="PKW" depart="168.07" departLane="best" departPos="base" departSpeed="max" arrivalPos="-1.00">
        <route edges="em mw"/>
    </vehicle>
    <vehicle id="wm2mePKW.21" type="PKW" depart="170.27" departLane="best" departPos="base" departSpeed="max" arrivalPos="-1.00">
        <route edges="wm me"/>
    </vehicle>
    <vehicle id="sm2mnPKW.17" type="PKW" depart="170.94" departLane="best" departPos="base" departSpeed="max" arrivalPos="-1.00">
        <route edges="sm mn"/>
    </vehicle>
    <vehicle id="nm2msPKW.17" type="PKW" depart="171.43" departLane="best" departPos="base" departSpeed="max" arrivalPos="-1.00">
        <route edges="nm ms"/>
    </vehicle>
    <vehicle id="wm2mnPKW.3" type="PKW" depart="174.19" departLane="best" departPos="base" departSpeed="max" arrivalPos="-1.00">
        <route edges="wm mn"/>
    </vehicle>
    <vehicle id="em2mwPKW.25" type="PKW" depart="175.08" departLane="best" departPos="base" departSpeed="max" arrivalPos="-1.00">
        <route edges="em mw"/>
    </vehicle>
    <vehicle id="sm2mePKW.18" type="PKW" depart="176.08" departLane="best" departPos="base" departSpeed="max" arrivalPos="-1.00">
        <route edges="sm me"/>
    </vehicle>
    <vehicle id="wm2mePKW.22" type="PKW" depart="178.38" departLane="best" departPos="base" departSpeed="max" arrivalPos="-1.00">
        <route edges="wm me"/>
    </vehicle>
    <vehicle id="sm2mnPKW.18" type="PKW" depart="180.99" departLane="best" departPos="base" departSpeed="max" arrivalPos="-1.00">
        <route edges="sm mn"/>
    </vehicle>
    <vehicle id="nm2msPKW.18" type="PKW" depart="181.51" departLane="best" departPos="base" departSpeed="max" arrivalPos="-1.00">
        <route edges="nm ms"/>
    </vehicle>
    <vehicle id="em2mwPKW.26" type="PKW" depart="182.08" departLane="best" departPos="base" departSpeed="max" arrivalPos="-1.00">
        <route edges="em mw"/>
    </vehicle>
    <vehicle id="em2msPKW.9" type="PKW" depart="185.14" departLane="best" departPos="base" departSpeed="max" arrivalPos="-1.00">
        <route edges="em ms"/>
    </vehicle>
    <vehicle id="sm2mePKW.19" type="PKW" depart="185.86" departLane="best" departPos="base" departSpeed="max" arrivalPos="-1.00">
        <route edges="sm me"/>
    </vehicle>
    <vehicle id="wm2mePKW.23" type="PKW" depart="186.48" departLane="best" departPos="base" departSpeed="max" arrivalPos="-1.00">
        <route edges="wm me"/>
    </vehicle>
    <vehicle id="em2mwPKW.27" type="PKW" depart="189.08" departLane="best" departPos="base" departSpeed="max" arrivalPos="-1.00">
        <route edges="em mw"/>
    </vehicle>
    <vehicle id="em2mwLKW.2" type="LKW" depart="189.47" departLane="best" departPos="base" departSpeed="max" arrivalPos="-1.00">
        <route edges="em mw"/>
    </vehicle>
    <vehicle id="sm2meLKW.1" type="LKW" depart="189.47" departLane="best" departPos="base" departSpeed="max" arrivalPos="-1.00">
        <route edges="sm me"/>
    </vehicle>
    <vehicle id="sm2mnPKW.19" type="PKW" depart="191.05" departLane="best" departPos="base" departSpeed="max" arrivalPos="-1.00">
        <route edges="sm mn"/>
    </vehicle>
    <vehicle id="nm2msPKW.19" type="PKW" depart="191.60" departLane="best" departPos="base" departSpeed="max" arrivalPos="-1.00">
        <route edges="nm ms"/>
    </vehicle>
    <vehicle id="wm2mePKW.24" type="PKW" depart="194.59" departLane="best" departPos="base" departSpeed="max" arrivalPos="-1.00">
        <route edges="wm me"/>
    </vehicle>
    <vehicle id="sm2mePKW.20" type="PKW" depart="195.64" departLane="best" departPos="base" departSpeed="max" arrivalPos="-1.00">
        <route edges="sm me"/>
    </vehicle>
    <vehicle id="em2mwPKW.28" type="PKW" depart="196.08" departLane="best" departPos="base" departSpeed="max" arrivalPos="-1.00">
        <route edges="em mw"/>
    </vehicle>
    <vehicle id="em2mnPKW.4" type="PKW" depart="197.26" departLane="best" departPos="base" departSpeed="max" arrivalPos="-1.00">
        <route edges="em mn"/>
    </vehicle>
    <vehicle id="wm2msPKW.3" type="PKW" depart="200.00" departLane="best" departPos="base" departSpeed="max" arrivalPos="-1.00">
        <route edges="wm ms"/>
    </vehicle>
    <vehicle id="sm2mnPKW.20" type="PKW" depart="201.10" departLane="best" departPos="base" departSpeed="max" arrivalPos="-1.00">
        <route edges="sm mn"/>
    </vehicle>
    <vehicle id="nm2msPKW.20" type="PKW" depart="201.68" departLane="best" departPos="base" departSpeed="max" arrivalPos="-1.00">
        <route edges="nm ms"/>
    </vehicle>