<?xml version="1.0"?>

<!-- generated on 03/27/13 21:40:47 by SUMO duarouter Version dev-SVN-r13370
<?xml version="1.0" encoding="UTF-8"?>

<configuration xmlns:xsi="http://www.w3.org/2001/XMLSchema-instance" xsi:noNamespaceSchemaLocation="https://sumo.sf.net/xsd/duarouterConfiguration.xsd">

    <input>
        <net-file value="net.net.xml"/>
        <flow-files value="input_flows.flows.xml"/>
    </input>

    <output>
        <output-file value="routes.rou.xml"/>
        <vtype-output value=""/>
    </output>

    <report>
        <verbose value="true"/>
    </report>

</configuration>
-->

<routes xmlns:xsi="http://www.w3.org/2001/XMLSchema-instance" xsi:noNamespaceSchemaLocation="https://sumo.sf.net/xsd/routes_file.xsd">
    <vehicle id="em2mnLKW_0" type="LKW" depart="0.00" departLane="best" departPos="base" departSpeed="max" arrivalPos="-1.00">
        <route edges="em mn"/>
    </vehicle>
    <vehicle id="em2mnPKW_0" type="PKW" depart="0.00" departLane="best" departPos="base" departSpeed="max" arrivalPos="-1.00">
        <route edges="em mn"/>
    </vehicle>
    <vehicle id="em2msLKW_0" type="LKW" depart="0.00" departLane="best" departPos="base" departSpeed="max" arrivalPos="-1.00">
        <route edges="em ms"/>
    </vehicle>
    <vehicle id="em2msPKW_0" type="PKW" depart="0.00" departLane="best" departPos="base" departSpeed="max" arrivalPos="-1.00">
        <route edges="em ms"/>
    </vehicle>
    <vehicle id="em2mwLKW_0" type="LKW" depart="0.00" departLane="best" departPos="base" departSpeed="max" arrivalPos="-1.00">
        <route edges="em mw"/>
    </vehicle>
    <vehicle id="em2mwPKW_0" type="PKW" depart="0.00" departLane="best" departPos="base" departSpeed="max" arrivalPos="-1.00">
        <route edges="em mw"/>
    </vehicle>
    <vehicle id="nm2meLKW_0" type="LKW" depart="0.00" departLane="best" departPos="base" departSpeed="max" arrivalPos="-1.00">
        <route edges="nm me"/>
    </vehicle>
    <vehicle id="nm2mePKW_0" type="PKW" depart="0.00" departLane="best" departPos="base" departSpeed="max" arrivalPos="-1.00">
        <route edges="nm me"/>
    </vehicle>
    <vehicle id="nm2msLKW_0" type="LKW" depart="0.00" departLane="best" departPos="base" departSpeed="max" arrivalPos="-1.00">
        <route edges="nm ms"/>
    </vehicle>
    <vehicle id="nm2msPKW_0" type="PKW" depart="0.00" departLane="best" departPos="base" departSpeed="max" arrivalPos="-1.00">
        <route edges="nm ms"/>
    </vehicle>
    <vehicle id="nm2mwLKW_0" type="LKW" depart="0.00" departLane="best" departPos="base" departSpeed="max" arrivalPos="-1.00">
        <route edges="nm mw"/>
    </vehicle>
    <vehicle id="nm2mwPKW_0" type="PKW" depart="0.00" departLane="best" departPos="base" departSpeed="max" arrivalPos="-1.00">
        <route edges="nm mw"/>
    </vehicle>
    <vehicle id="sm2meLKW_0" type="LKW" depart="0.00" departLane="best" departPos="base" departSpeed="max" arrivalPos="-1.00">
        <route edges="sm me"/>
    </vehicle>
    <vehicle id="sm2mePKW_0" type="PKW" depart="0.00" departLane="best" departPos="base" departSpeed="max" arrivalPos="-1.00">
        <route edges="sm me"/>
    </vehicle>
    <vehicle id="sm2mnLKW_0" type="LKW" depart="0.00" departLane="best" departPos="base" departSpeed="max" arrivalPos="-1.00">
        <route edges="sm mn"/>
    </vehicle>
    <vehicle id="sm2mnPKW_0" type="PKW" depart="0.00" departLane="best" departPos="base" departSpeed="max" arrivalPos="-1.00">
        <route edges="sm mn"/>
    </vehicle>
    <vehicle id="sm2mwLKW_0" type="LKW" depart="0.00" departLane="best" departPos="base" departSpeed="max" arrivalPos="-1.00">
        <route edges="sm mw"/>
    </vehicle>
    <vehicle id="sm2mwPKW_0" type="PKW" depart="0.00" departLane="best" departPos="base" departSpeed="max" arrivalPos="-1.00">
        <route edges="sm mw"/>
    </vehicle>
    <vehicle id="wm2meLKW_0" type="LKW" depart="0.00" departLane="best" departPos="base" departSpeed="max" arrivalPos="-1.00">
        <route edges="wm me"/>
    </vehicle>
    <vehicle id="wm2mePKW_0" type="PKW" depart="0.00" departLane="best" departPos="base" departSpeed="max" arrivalPos="-1.00">
        <route edges="wm me"/>
    </vehicle>
    <vehicle id="wm2mnLKW_0" type="LKW" depart="0.00" departLane="best" departPos="base" departSpeed="max" arrivalPos="-1.00">
        <route edges="wm mn"/>
    </vehicle>
    <vehicle id="wm2mnPKW_0" type="PKW" depart="0.00" departLane="best" departPos="base" departSpeed="max" arrivalPos="-1.00">
        <route edges="wm mn"/>
    </vehicle>
    <vehicle id="wm2msLKW_0" type="LKW" depart="0.00" departLane="best" departPos="base" departSpeed="max" arrivalPos="-1.00">
        <route edges="wm ms"/>
    </vehicle>
    <vehicle id="wm2msPKW_0" type="PKW" depart="0.00" departLane="best" departPos="base" departSpeed="max" arrivalPos="-1.00">
        <route edges="wm ms"/>
    </vehicle>
    <vehicle id="em2mwPKW_1" type="PKW" depart="7.00" departLane="best" departPos="base" departSpeed="max" arrivalPos="-1.00">
        <route edges="em mw"/>
    </vehicle>
    <vehicle id="wm2mePKW_1" type="PKW" depart="8.00" departLane="best" departPos="base" departSpeed="max" arrivalPos="-1.00">
        <route edges="wm me"/>
    </vehicle>
    <vehicle id="nm2msPKW_1" type="PKW" depart="10.00" departLane="best" departPos="base" departSpeed="max" arrivalPos="-1.00">
        <route edges="nm ms"/>
    </vehicle>
    <vehicle id="sm2mePKW_1" type="PKW" depart="10.00" departLane="best" departPos="base" departSpeed="max" arrivalPos="-1.00">
        <route edges="sm me"/>
    </vehicle>
    <vehicle id="sm2mnPKW_1" type="PKW" depart="10.00" departLane="best" departPos="base" departSpeed="max" arrivalPos="-1.00">
        <route edges="sm mn"/>
    </vehicle>
    <vehicle id="em2mwPKW_2" type="PKW" depart="14.00" departLane="best" departPos="base" departSpeed="max" arrivalPos="-1.00">
        <route edges="em mw"/>
    </vehicle>
    <vehicle id="wm2mePKW_2" type="PKW" depart="16.00" departLane="best" departPos="base" departSpeed="max" arrivalPos="-1.00">
        <route edges="wm me"/>
    </vehicle>
    <vehicle id="nm2msPKW_2" type="PKW" depart="20.00" departLane="best" departPos="base" departSpeed="max" arrivalPos="-1.00">
        <route edges="nm ms"/>
    </vehicle>
    <vehicle id="sm2mePKW_2" type="PKW" depart="20.00" departLane="best" departPos="base" departSpeed="max" arrivalPos="-1.00">
        <route edges="sm me"/>
    </vehicle>
    <vehicle id="sm2mnPKW_2" type="PKW" depart="20.00" departLane="best" departPos="base" departSpeed="max" arrivalPos="-1.00">
        <route edges="sm mn"/>
    </vehicle>
    <vehicle id="em2msPKW_1" type="PKW" depart="21.00" departLane="best" departPos="base" departSpeed="max" arrivalPos="-1.00">
        <route edges="em ms"/>
    </vehicle>
    <vehicle id="em2mwPKW_3" type="PKW" depart="21.00" departLane="best" departPos="base" departSpeed="max" arrivalPos="-1.00">
        <route edges="em mw"/>
    </vehicle>
    <vehicle id="wm2mePKW_3" type="PKW" depart="24.00" departLane="best" departPos="base" departSpeed="max" arrivalPos="-1.00">
        <route edges="wm me"/>
    </vehicle>
    <vehicle id="em2mwPKW_4" type="PKW" depart="28.00" departLane="best" departPos="base" departSpeed="max" arrivalPos="-1.00">
        <route edges="em mw"/>
    </vehicle>
    <vehicle id="sm2mePKW_3" type="PKW" depart="29.00" departLane="best" departPos="base" departSpeed="max" arrivalPos="-1.00">
        <route edges="sm me"/>
    </vehicle>
    <vehicle id="nm2msPKW_3" type="PKW" depart="30.00" departLane="best" departPos="base" departSpeed="max" arrivalPos="-1.00">
        <route edges="nm ms"/>
    </vehicle>
    <vehicle id="sm2mnPKW_3" type="PKW" depart="30.00" departLane="best" departPos="base" departSpeed="max" arrivalPos="-1.00">
        <route edges="sm mn"/>
    </vehicle>
    <vehicle id="wm2mePKW_4" type="PKW" depart="32.00" departLane="best" departPos="base" departSpeed="max" arrivalPos="-1.00">
        <route edges="wm me"/>
    </vehicle>
    <vehicle id="em2mwPKW_5" type="PKW" depart="35.00" departLane="best" departPos="base" departSpeed="max" arrivalPos="-1.00">
        <route edges="em mw"/>
    </vehicle>
    <vehicle id="sm2mePKW_4" type="PKW" depart="39.00" departLane="best" departPos="base" departSpeed="max" arrivalPos="-1.00">
        <route edges="sm me"/>
    </vehicle>
    <vehicle id="nm2msPKW_4" type="PKW" depart="40.00" departLane="best" departPos="base" departSpeed="max" arrivalPos="-1.00">
        <route edges="nm ms"/>
    </vehicle>
    <vehicle id="sm2mnPKW_4" type="PKW" depart="40.00" departLane="best" departPos="base" departSpeed="max" arrivalPos="-1.00">
        <route edges="sm mn"/>
    </vehicle>
    <vehicle id="em2msPKW_2" type="PKW" depart="41.00" departLane="best" departPos="base" departSpeed="max" arrivalPos="-1.00">
        <route edges="em ms"/>
    </vehicle>
    <vehicle id="wm2mePKW_5" type="PKW" depart="41.00" departLane="best" departPos="base" departSpeed="max" arrivalPos="-1.00">
        <route edges="wm me"/>
    </vehicle>
    <vehicle id="em2mwPKW_6" type="PKW" depart="42.00" departLane="best" departPos="base" departSpeed="max" arrivalPos="-1.00">
        <route edges="em mw"/>
    </vehicle>
    <vehicle id="em2mnPKW_1" type="PKW" depart="49.00" departLane="best" departPos="base" departSpeed="max" arrivalPos="-1.00">
        <route edges="em mn"/>
    </vehicle>
    <vehicle id="em2mwPKW_7" type="PKW" depart="49.00" departLane="best" departPos="base" departSpeed="max" arrivalPos="-1.00">
        <route edges="em mw"/>
    </vehicle>
    <vehicle id="sm2mePKW_5" type="PKW" depart="49.00" departLane="best" departPos="base" departSpeed="max" arrivalPos="-1.00">
        <route edges="sm me"/>
    </vehicle>
    <vehicle id="wm2mePKW_6" type="PKW" depart="49.00" departLane="best" departPos="base" departSpeed="max" arrivalPos="-1.00">
        <route edges="wm me"/>
    </vehicle>
    <vehicle id="nm2msPKW_5" type="PKW" depart="50.00" departLane="best" departPos="base" departSpeed="max" arrivalPos="-1.00">
        <route edges="nm ms"/>
    </vehicle>
    <vehicle id="sm2mnPKW_5" type="PKW" depart="50.00" departLane="best" departPos="base" departSpeed="max" arrivalPos="-1.00">
        <route edges="sm mn"/>
    </vehicle>
    <vehicle id="em2mwPKW_8" type="PKW" depart="56.00" departLane="best" departPos="base" departSpeed="max" arrivalPos="-1.00">
        <route edges="em mw"/>
    </vehicle>
    <vehicle id="wm2mePKW_7" type="PKW" depart="57.00" departLane="best" departPos="base" departSpeed="max" arrivalPos="-1.00">
        <route edges="wm me"/>
    </vehicle>
    <vehicle id="wm2mnPKW_1" type="PKW" depart="58.00" departLane="best" departPos="base" departSpeed="max" arrivalPos="-1.00">
        <route edges="wm mn"/>
    </vehicle>
    <vehicle id="sm2mePKW_6" type="PKW" depart="59.00" departLane="best" departPos="base" departSpeed="max" arrivalPos="-1.00">
        <route edges="sm me"/>
    </vehicle>
    <vehicle id="sm2mnPKW_6" type="PKW" depart="60.00" departLane="best" departPos="base" departSpeed="max" arrivalPos="-1.00">
        <route edges="sm mn"/>
    </vehicle>
    <vehicle id="nm2msPKW_6" type="PKW" depart="61.00" departLane="best" departPos="base" departSpeed="max" arrivalPos="-1.00">
        <route edges="nm ms"/>
    </vehicle>
    <vehicle id="em2msPKW_3" type="PKW" depart="62.00" departLane="best" departPos="base" departSpeed="max" arrivalPos="-1.00">
        <route edges="em ms"/>
    </vehicle>
    <vehicle id="em2mwPKW_9" type="PKW" depart="63.00" departLane="best" departPos="base" departSpeed="max" arrivalPos="-1.00">
        <route edges="em mw"/>
    </vehicle>
    <vehicle id="wm2mePKW_8" type="PKW" depart="65.00" departLane="best" departPos="base" departSpeed="max" arrivalPos="-1.00">
        <route edges="wm me"/>
    </vehicle>
    <vehicle id="wm2msPKW_1" type="PKW" depart="67.00" departLane="best" departPos="base" departSpeed="max" arrivalPos="-1.00">
        <route edges="wm ms"/>
    </vehicle>
    <vehicle id="sm2mePKW_7" type="PKW" depart="68.00" departLane="best" departPos="base" departSpeed="max" arrivalPos="-1.00">
        <route edges="sm me"/>
    </vehicle>
    <vehicle id="nm2mePKW_1" type="PKW" depart="69.00" departLane="best" departPos="base" departSpeed="max" arrivalPos="-1.00">
        <route edges="nm me"/>
    </vehicle>
    <vehicle id="em2mwPKW_10" type="PKW" depart="70.00" departLane="best" departPos="base" departSpeed="max" arrivalPos="-1.00">
        <route edges="em mw"/>
    </vehicle>
    <vehicle id="sm2mnPKW_7" type="PKW" depart="70.00" departLane="best" departPos="base" departSpeed="max" arrivalPos="-1.00">
        <route edges="sm mn"/>
    </vehicle>
    <vehicle id="nm2msPKW_7" type="PKW" depart="71.00" departLane="best" departPos="base" departSpeed="max" arrivalPos="-1.00">
        <route edges="nm ms"/>
    </vehicle>
    <vehicle id="wm2mePKW_9" type="PKW" depart="73.00" departLane="best" departPos="base" departSpeed="max" arrivalPos="-1.00">
        <route edges="wm me"/>
    </vehicle>
    <vehicle id="em2mwPKW_11" type="PKW" depart="77.00" departLane="best" departPos="base" departSpeed="max" arrivalPos="-1.00">
        <route edges="em mw"/>
    </vehicle>
    <vehicle id="sm2mePKW_8" type="PKW" depart="78.00" departLane="best" departPos="base" departSpeed="max" arrivalPos="-1.00">
        <route edges="sm me"/>
    </vehicle>
    <vehicle id="sm2mnPKW_8" type="PKW" depart="80.00" departLane="best" departPos="base" departSpeed="max" arrivalPos="-1.00">
        <route edges="sm mn"/>
    </vehicle>
    <vehicle id="nm2msPKW_8" type="PKW" depart="81.00" departLane="best" departPos="base" departSpeed="max" arrivalPos="-1.00">
        <route edges="nm ms"/>
    </vehicle>
    <vehicle id="wm2mePKW_10" type="PKW" depart="81.00" departLane="best" departPos="base" departSpeed="max" arrivalPos="-1.00">
        <route edges="wm me"/>
    </vehicle>
    <vehicle id="em2msPKW_4" type="PKW" depart="82.00" departLane="best" departPos="base" departSpeed="max" arrivalPos="-1.00">
        <route edges="em ms"/>
    </vehicle>
    <vehicle id="sm2mnLKW_1" type="LKW" depart="82.00" departLane="best" departPos="base" departSpeed="max" arrivalPos="-1.00">
        <route edges="sm mn"/>
    </vehicle>
    <vehicle id="sm2mwPKW_1" type="PKW" depart="82.00" departLane="best" departPos="base" departSpeed="max" arrivalPos="-1.00">
        <route edges="sm mw"/>
    </vehicle>
    <vehicle id="em2mwPKW_12" type="PKW" depart="84.00" departLane="best" departPos="base" departSpeed="max" arrivalPos="-1.00">
        <route edges="em mw"/>
    </vehicle>
    <vehicle id="sm2mePKW_9" type="PKW" depart="88.00" departLane="best" departPos="base" departSpeed="max" arrivalPos="-1.00">
        <route edges="sm me"/>
    </vehicle>
    <vehicle id="wm2mePKW_11" type="PKW" depart="89.00" departLane="best" departPos="base" departSpeed="max" arrivalPos="-1.00">
        <route edges="wm me"/>
    </vehicle>
    <vehicle id="em2mwPKW_13" type="PKW" depart="91.00" departLane="best" departPos="base" departSpeed="max" arrivalPos="-1.00">
        <route edges="em mw"/>
    </vehicle>
    <vehicle id="nm2msPKW_9" type="PKW" depart="91.00" departLane="best" departPos="base" departSpeed="max" arrivalPos="-1.00">
        <route edges="nm ms"/>
    </vehicle>
    <vehicle id="sm2mnPKW_9" type="PKW" depart="91.00" departLane="best" departPos="base" departSpeed="max" arrivalPos="-1.00">
        <route edges="sm mn"/>
    </vehicle>
    <vehicle id="em2mwLKW_1" type="LKW" depart="95.00" departLane="best" departPos="base" departSpeed="max" arrivalPos="-1.00">
        <route edges="em mw"/>
    </vehicle>
    <vehicle id="wm2mePKW_12" type="PKW" depart="97.00" departLane="best" departPos="base" departSpeed="max" arrivalPos="-1.00">
        <route edges="wm me"/>
    </vehicle>
    <vehicle id="em2mwPKW_14" type="PKW" depart="98.00" departLane="best" departPos="base" departSpeed="max" arrivalPos="-1.00">
        <route edges="em mw"/>
    </vehicle>
    <vehicle id="sm2mePKW_10" type="PKW" depart="98.00" departLane="best" departPos="base" departSpeed="max" arrivalPos="-1.00">
        <route edges="sm me"/>
    </vehicle>
    <vehicle id="em2mnPKW_2" type="PKW" depart="99.00" departLane="best" departPos="base" departSpeed="max" arrivalPos="-1.00">
        <route edges="em mn"/>
    </vehicle>
    <vehicle id="nm2msPKW_10" type="PKW" depart="101.00" departLane="best" departPos="base" departSpeed="max" arrivalPos="-1.00">
        <route edges="nm ms"/>
    </vehicle>
    <vehicle id="sm2mnPKW_10" type="PKW" depart="101.00" departLane="best" departPos="base" departSpeed="max" arrivalPos="-1.00">
        <route edges="sm mn"/>
    </vehicle>
    <vehicle id="em2msPKW_5" type="PKW" depart="103.00" departLane="best" departPos="base" departSpeed="max" arrivalPos="-1.00">
        <route edges="em ms"/>
    </vehicle>
    <vehicle id="em2mwPKW_15" type="PKW" depart="105.00" departLane="best" departPos="base" departSpeed="max" arrivalPos="-1.00">
        <route edges="em mw"/>
    </vehicle>
    <vehicle id="wm2mePKW_13" type="PKW" depart="105.00" departLane="best" departPos="base" departSpeed="max" arrivalPos="-1.00">
        <route edges="wm me"/>
    </vehicle>
    <vehicle id="sm2mePKW_11" type="PKW" depart="108.00" departLane="best" departPos="base" departSpeed="max" arrivalPos="-1.00">
        <route edges="sm me"/>
    </vehicle>
    <vehicle id="nm2msPKW_11" type="PKW" depart="111.00" departLane="best" departPos="base" departSpeed="max" arrivalPos="-1.00">
        <route edges="nm ms"/>
    </vehicle>
    <vehicle id="sm2mnPKW_11" type="PKW" depart="111.00" departLane="best" departPos="base" departSpeed="max" arrivalPos="-1.00">
        <route edges="sm mn"/>
    </vehicle>
    <vehicle id="em2mwPKW_16" type="PKW" depart="112.00" departLane="best" departPos="base" departSpeed="max" arrivalPos="-1.00">
        <route edges="em mw"/>
    </vehicle>
    <vehicle id="wm2mePKW_14" type="PKW" depart="114.00" departLane="best" departPos="base" departSpeed="max" arrivalPos="-1.00">
        <route edges="wm me"/>
    </vehicle>
    <vehicle id="nm2mwPKW_1" type="PKW" depart="116.00" departLane="best" departPos="base" departSpeed="max" arrivalPos="-1.00">
        <route edges="nm mw"/>
    </vehicle>
    <vehicle id="wm2mnPKW_2" type="PKW" depart="116.00" departLane="best" departPos="base" departSpeed="max" arrivalPos="-1.00">
        <route edges="wm mn"/>
    </vehicle>
    <vehicle id="sm2mePKW_12" type="PKW" depart="117.00" departLane="best" departPos="base" departSpeed="max" arrivalPos="-1.00">
        <route edges="sm me"/>
    </vehicle>
    <vehicle id="em2mwPKW_17" type="PKW" depart="119.00" departLane="best" departPos="base" departSpeed="max" arrivalPos="-1.00">
        <route edges="em mw"/>
    </vehicle>
    <vehicle id="nm2msPKW_12" type="PKW" depart="121.00" departLane="best" departPos="base" departSpeed="max" arrivalPos="-1.00">
        <route edges="nm ms"/>
    </vehicle>
    <vehicle id="sm2mnPKW_12" type="PKW" depart="121.00" departLane="best" departPos="base" departSpeed="max" arrivalPos="-1.00">
        <route edges="sm mn"/>
    </vehicle>
    <vehicle id="wm2mePKW_15" type="PKW" depart="122.00" departLane="best" departPos="base" departSpeed="max" arrivalPos="-1.00">
        <route edges="wm me"/>
    </vehicle>
    <vehicle id="em2msPKW_6" type="PKW" depart="123.00" departLane="best" departPos="base" departSpeed="max" arrivalPos="-1.00">
        <route edges="em ms"/>
    </vehicle>
    <vehicle id="em2mwPKW_18" type="PKW" depart="126.00" departLane="best" departPos="base" departSpeed="max" arrivalPos="-1.00">
        <route edges="em mw"/>
    </vehicle>
    <vehicle id="sm2mePKW_13" type="PKW" depart="127.00" departLane="best" departPos="base" departSpeed="max" arrivalPos="-1.00">
        <route edges="sm me"/>
    </vehicle>
    <vehicle id="wm2meLKW_1" type="LKW" depart="129.00" departLane="best" departPos="base" departSpeed="max" arrivalPos="-1.00">
        <route edges="wm me"/>
    </vehicle>
    <vehicle id="wm2mePKW_16" type="PKW" depart="130.00" departLane="best" departPos="base" departSpeed="max" arrivalPos="-1.00">
        <route edges="wm me"/>
    </vehicle>
    <vehicle id="nm2msPKW_13" type="PKW" depart="131.00" departLane="best" departPos="base" departSpeed="max" arrivalPos="-1.00">
        <route edges="nm ms"/>
    </vehicle>
    <vehicle id="sm2mnPKW_13" type="PKW" depart="131.00" departLane="best" departPos="base" departSpeed="max" arrivalPos="-1.00">
        <route edges="sm mn"/>
    </vehicle>
    <vehicle id="em2mwPKW_19" type="PKW" depart="133.00" departLane="best" departPos="base" departSpeed="max" arrivalPos="-1.00">
        <route edges="em mw"/>
    </vehicle>
    <vehicle id="wm2msPKW_2" type="PKW" depart="133.00" departLane="best" departPos="base" departSpeed="max" arrivalPos="-1.00">
        <route edges="wm ms"/>
    </vehicle>
    <vehicle id="sm2mePKW_14" type="PKW" depart="137.00" departLane="best" departPos="base" departSpeed="max" arrivalPos="-1.00">
        <route edges="sm me"/>
    </vehicle>
    <vehicle id="nm2mePKW_2" type="PKW" depart="138.00" departLane="best" departPos="base" departSpeed="max" arrivalPos="-1.00">
        <route edges="nm me"/>
    </vehicle>
    <vehicle id="nm2msLKW_1" type="LKW" depart="138.00" departLane="best" departPos="base" departSpeed="max" arrivalPos="-1.00">
        <route edges="nm ms"/>
    </vehicle>
    <vehicle id="wm2mePKW_17" type="PKW" depart="138.00" departLane="best" departPos="base" departSpeed="max" arrivalPos="-1.00">
        <route edges="wm me"/>
    </vehicle>
    <vehicle id="em2mwPKW_20" type="PKW" depart="140.00" departLane="best" departPos="base" departSpeed="max" arrivalPos="-1.00">
        <route edges="em mw"/>
    </vehicle>
    <vehicle id="nm2msPKW_14" type="PKW" depart="141.00" departLane="best" departPos="base" departSpeed="max" arrivalPos="-1.00">
        <route edges="nm ms"/>
    </vehicle>
    <vehicle id="sm2mnPKW_14" type="PKW" depart="141.00" departLane="best" departPos="base" departSpeed="max" arrivalPos="-1.00">
        <route edges="sm mn"/>
    </vehicle>
    <vehicle id="em2msPKW_7" type="PKW" depart="144.00" departLane="best" departPos="base" departSpeed="max" arrivalPos="-1.00">
        <route edges="em ms"/>
    </vehicle>
    <vehicle id="wm2mePKW_18" type="PKW" depart="146.00" departLane="best" departPos="base" departSpeed="max" arrivalPos="-1.00">
        <route edges="wm me"/>
    </vehicle>
    <vehicle id="em2mwPKW_21" type="PKW" depart="147.00" departLane="best" departPos="base" departSpeed="max" arrivalPos="-1.00">
        <route edges="em mw"/>
    </vehicle>
    <vehicle id="sm2mePKW_15" type="PKW" depart="147.00" departLane="best" departPos="base" departSpeed="max" arrivalPos="-1.00">
        <route edges="sm me"/>
    </vehicle>
    <vehicle id="em2mnPKW_3" type="PKW" depart="148.00" departLane="best" departPos="base" departSpeed="max" arrivalPos="-1.00">
        <route edges="em mn"/>
    </vehicle>
    <vehicle id="nm2msPKW_15" type="PKW" depart="151.00" departLane="best" departPos="base" departSpeed="max" arrivalPos="-1.00">
        <route edges="nm ms"/>
    </vehicle>
    <vehicle id="sm2mnPKW_15" type="PKW" depart="151.00" departLane="best" departPos="base" departSpeed="max" arrivalPos="-1.00">
        <route edges="sm mn"/>
    </vehicle>
    <vehicle id="em2mwPKW_22" type="PKW" depart="154.00" departLane="best" departPos="base" departSpeed="max" arrivalPos="-1.00">
        <route edges="em mw"/>
    </vehicle>
    <vehicle id="wm2mePKW_19" type="PKW" depart="154.00" departLane="best" departPos="base" departSpeed="max" arrivalPos="-1.00">
        <route edges="wm me"/>
    </vehicle>
    <vehicle id="sm2mePKW_16" type="PKW" depart="157.00" departLane="best" departPos="base" departSpeed="max" arrivalPos="-1.00">
        <route edges="sm me"/>
    </vehicle>
    <vehicle id="em2mwPKW_23" type="PKW" depart="161.00" departLane="best" departPos="base" departSpeed="max" arrivalPos="-1.00">
        <route edges="em mw"/>
    </vehicle>
    <vehicle id="nm2msPKW_16" type="PKW" depart="161.00" departLane="best" departPos="base" departSpeed="max" arrivalPos="-1.00">
        <route edges="nm ms"/>
    </vehicle>
    <vehicle id="sm2mnPKW_16" type="PKW" depart="161.00" departLane="best" departPos="base" departSpeed="max" arrivalPos="-1.00">
        <route edges="sm mn"/>
    </vehicle>
    <vehicle id="wm2mePKW_20" type="PKW" depart="162.00" departLane="best" departPos="base" departSpeed="max" arrivalPos="-1.00">
        <route edges="wm me"/>
    </vehicle>
    <vehicle id="sm2mnLKW_2" type="LKW" depart="164.00" departLane="best" departPos="base" departSpeed="max" arrivalPos="-1.00">
        <route edges="sm mn"/>
    </vehicle>
    <vehicle id="sm2mwPKW_2" type="PKW" depart="164.00" departLane="best" departPos="base" departSpeed="max" arrivalPos="-1.00">
        <route edges="sm mw"/>
    </vehicle>
    <vehicle id="em2msPKW_8" type="PKW" depart="165.00" departLane="best" departPos="base" departSpeed="max" arrivalPos="-1.00">
        <route edges="em ms"/>
    </vehicle>
    <vehicle id="sm2mePKW_17" type="PKW" depart="166.00" departLane="best" departPos="base" departSpeed="max" arrivalPos="-1.00">
        <route edges="sm me"/>
    </vehicle>
    <vehicle id="em2mwPKW_24" type="PKW" depart="168.00" departLane="best" departPos="base" departSpeed="max" arrivalPos="-1.00">
        <route edges="em mw"/>
    </vehicle>
    <vehicle id="wm2mePKW_21" type="PKW" depart="170.00" departLane="best" departPos="base" departSpeed="max" arrivalPos="-1.00">
        <route edges="wm me"/>
    </vehicle>
    <vehicle id="nm2msPKW_17" type="PKW" depart="171.00" departLane="best" departPos="base" departSpeed="max" arrivalPos="-1.00">
        <route edges="nm ms"/>
    </vehicle>
    <vehicle id="sm2mnPKW_17" type="PKW" depart="171.00" departLane="best" departPos="base" departSpeed="max" arrivalPos="-1.00">
        <route edges="sm mn"/>
    </vehicle>
    <vehicle id="wm2mnPKW_3" type="PKW" depart="174.00" departLane="best" departPos="base" departSpeed="max" arrivalPos="-1.00">
        <route edges="wm mn"/>
    </vehicle>
    <vehicle id="em2mwPKW_25" type="PKW" depart="175.00" departLane="best" departPos="base" departSpeed="max" arrivalPos="-1.00">
        <route edges="em mw"/>
    </vehicle>
    <vehicle id="sm2mePKW_18" type="PKW" depart="176.00" departLane="best" departPos="base" departSpeed="max" arrivalPos="-1.00">
        <route edges="sm me"/>
    </vehicle>
    <vehicle id="wm2mePKW_22" type="PKW" depart="178.00" departLane="best" departPos="base" departSpeed="max" arrivalPos="-1.00">
        <route edges="wm me"/>
    </vehicle>
    <vehicle id="sm2mnPKW_18" type="PKW" depart="181.00" departLane="best" departPos="base" departSpeed="max" arrivalPos="-1.00">
        <route edges="sm mn"/>
    </vehicle>
    <vehicle id="em2mwPKW_26" type="PKW" depart="182.00" departLane="best" departPos="base" departSpeed="max" arrivalPos="-1.00">
        <route edges="em mw"/>
    </vehicle>
    <vehicle id="nm2msPKW_18" type="PKW" depart="182.00" departLane="best" departPos="base" departSpeed="max" arrivalPos="-1.00">
        <route edges="nm ms"/>
    </vehicle>
    <vehicle id="em2msPKW_9" type="PKW" depart="185.00" departLane="best" departPos="base" departSpeed="max" arrivalPos="-1.00">
        <route edges="em ms"/>
    </vehicle>
    <vehicle id="sm2mePKW_19" type="PKW" depart="186.00" departLane="best" departPos="base" departSpeed="max" arrivalPos="-1.00">
        <route edges="sm me"/>
    </vehicle>
    <vehicle id="wm2mePKW_23" type="PKW" depart="186.00" departLane="best" departPos="base" departSpeed="max" arrivalPos="-1.00">
        <route edges="wm me"/>
    </vehicle>
    <vehicle id="em2mwLKW_2" type="LKW" depart="189.00" departLane="best" departPos="base" departSpeed="max" arrivalPos="-1.00">
        <route edges="em mw"/>
    </vehicle>
    <vehicle id="em2mwPKW_27" type="PKW" depart="189.00" departLane="best" departPos="base" departSpeed="max" arrivalPos="-1.00">
        <route edges="em mw"/>
    </vehicle>
    <vehicle id="sm2meLKW_1" type="LKW" depart="189.00" departLane="best" departPos="base" departSpeed="max" arrivalPos="-1.00">
        <route edges="sm me"/>
    </vehicle>
    <vehicle id="sm2mnPKW_19" type="PKW" depart="191.00" departLane="best" departPos="base" departSpeed="max" arrivalPos="-1.00">
        <route edges="sm mn"/>
    </vehicle>
    <vehicle id="nm2msPKW_19" type="PKW" depart="192.00" departLane="best" departPos="base" departSpeed="max" arrivalPos="-1.00">
        <route edges="nm ms"/>
    </vehicle>
    <vehicle id="wm2mePKW_24" type="PKW" depart="195.00" departLane="best" departPos="base" departSpeed="max" arrivalPos="-1.00">
        <route edges="wm me"/>
    </vehicle>
    <vehicle id="em2mwPKW_28" type="PKW" depart="196.00" departLane="best" departPos="base" departSpeed="max" arrivalPos="-1.00">
        <route edges="em mw"/>
    </vehicle>
    <vehicle id="sm2mePKW_20" type="PKW" depart="196.00" departLane="best" departPos="base" departSpeed="max" arrivalPos="-1.00">
        <route edges="sm me"/>
    </vehicle>
    <vehicle id="em2mnPKW_4" type="PKW" depart="197.00" departLane="best" departPos="base" departSpeed="max" arrivalPos="-1.00">
        <route edges="em mn"/>
    </vehicle>
    <vehicle id="wm2msPKW_3" type="PKW" depart="200.00" departLane="best" departPos="base" departSpeed="max" arrivalPos="-1.00">
        <route edges="wm ms"/>
    </vehicle>
    <vehicle id="sm2mnPKW_20" type="PKW" depart="201.00" departLane="best" departPos="base" departSpeed="max" arrivalPos="-1.00">
        <route edges="sm mn"/>
    </vehicle>
    <vehicle id="nm2msPKW_20" type="PKW" depart="202.00" departLane="best" departPos="base" departSpeed="max" arrivalPos="-1.00">
        <route edges="nm ms"/>
    </vehicle>