<routes xmlns:xsi="http://www.w3.org/2001/XMLSchema-instance" xsi:noNamespaceSchemaLocation="http://sumo.dlr.de/xsd/routes_file.xsd">
   <route id="0" edges="beg middle end rend"/>
   <vType id="KRAUSS_DEFAULT" accel="2.6" decel="4.5" sigma="0" length="3" minGap="2" maxSpeed="70" color="1,1,0"/>
   <flow id="0" type="KRAUSS_DEFAULT" route="0" begin="0" end="301" period="10" departPos="0"/>
</routes>
