<additional xmlns:xsi="http://www.w3.org/2001/XMLSchema-instance" xsi:noNamespaceSchemaLocation="http://sumo.dlr.de/xsd/additional_file.xsd">
    <variableSpeedSign id="vss" lanes="middle_0" file="input_definition.def.xml"/>
</additional>
