<?xml version='1.0' encoding='UTF-8'?>
<!-- generated on Wed Apr 28 15:46:17 2021 by Eclipse SUMO netconvert Version 1.7.0
<configuration xmlns:xsi="http://www.w3.org/2001/XMLSchema-instance" xsi:noNamespaceSchemaLocation="http://sumo.dlr.de/xsd/netconvertConfiguration.xsd">

    <input>
        <type-files value="/home/yoshida/carla/Co-Simulation/Sumo/util/data/opendrive_netconvert.typ.xml"/>
        <opendrive-files value="/home/yoshida/carla/Import//auto_import/hiyoshi-1/map.xodr"/>
    </input>

    <output>
        <output-file value="/tmp/tmp2digsvrx/map.net.xml"/>
        <output.original-names value="true"/>
    </output>

    <processing>
        <geometry.remove value="true"/>
        <geometry.min-radius.fix value="true"/>
        <geometry.max-grade.fix value="false"/>
    </processing>

    <tls_building>
        <tls.discard-loaded value="true"/>
        <tls.left-green.time value="0"/>
    </tls_building>

    <junctions>
        <rectangular-lane-cut value="true"/>
    </junctions>

    <formats>
        <opendrive.import-all-lanes value="true"/>
        <opendrive.curve-resolution value="1"/>
    </formats>

    <report>
        <aggregate-warnings value="5"/>
    </report>

</configuration>
-->
<net xmlns:xsi="http://www.w3.org/2001/XMLSchema-instance" version="1.6" junctionCornerDetail="5" rectangularLaneCut="true" limitTurnSpeed="5.50" xsi:noNamespaceSchemaLocation="http://sumo.dlr.de/xsd/net_file.xsd">
  <location netOffset="-5491.83,-257.90" convBoundary="0.00,0.00,955.45,779.73" origBoundary="0.000000,0.000000,0.000000,0.000000" projParameter="+proj=tmerc +lat_0=35.5481849 +lon_0=139.579166 +x_0=0 +y_0=0 +ellps=GRS80 +units=m +no_defs"/>
  <type id="bidirectional" priority="1" speed="1.39" disallow="pedestrian tram rail_urban rail rail_electric rail_fast ship" width="3.65"/>
  <type id="biking" priority="-1" speed="5.56" allow="bicycle" width="1.50"/>
  <type id="border" priority="0" speed="1.39" disallow="all" discard="1" width="0.10"/>
  <type id="driving" priority="1" speed="13.89" disallow="pedestrian tram rail_urban rail rail_electric rail_fast ship" width="3.65"/>
  <type id="entry" priority="1" speed="22.22" disallow="pedestrian tram rail_urban rail rail_electric rail_fast ship" width="3.65"/>
  <type id="exit" priority="1" speed="22.22" disallow="pedestrian tram rail_urban rail rail_electric rail_fast ship" width="3.65"/>
  <type id="median" priority="0" speed="1.39" disallow="all" discard="1" width="0.10"/>
  <type id="mwyEntry" priority="1" speed="22.22" allow="private emergency authority army vip passenger hov taxi bus coach delivery truck trailer motorcycle evehicle custom1 custom2" width="3.65"/>
  <type id="mwyExit" priority="1" speed="22.22" allow="private emergency authority army vip passenger hov taxi bus coach delivery truck trailer motorcycle evehicle custom1 custom2" width="3.65"/>
  <type id="none" priority="0" speed="1.39" disallow="all" discard="1" width="1.00"/>
  <type id="offRamp" priority="1" speed="22.22" allow="private emergency authority army vip passenger hov taxi bus coach delivery truck trailer motorcycle evehicle custom1 custom2" width="3.65"/>
  <type id="onRamp" priority="1" speed="22.22" allow="private emergency authority army vip passenger hov taxi bus coach delivery truck trailer motorcycle evehicle custom1 custom2" width="3.65"/>
  <type id="parking" priority="1" speed="1.39" disallow="pedestrian tram rail_urban rail rail_electric rail_fast ship" width="2.50"/>
  <type id="rail" priority="3" speed="33.33" allow="rail_urban rail rail_electric rail_fast" width="3.65"/>
  <type id="restricted" priority="0" speed="13.89" disallow="all" width="3.65"/>
  <type id="roadWorks" priority="0" speed="1.39" allow="authority" width="3.65"/>
  <type id="shoulder" priority="0" speed="1.39" disallow="all" discard="1" width="1.00"/>
  <type id="sidewalk" priority="-2" speed="2.78" allow="pedestrian" width="2.50"/>
  <type id="special1" priority="1" speed="22.22" allow="custom1" discard="1" width="3.65"/>
  <type id="special2" priority="1" speed="22.22" allow="custom2" discard="1" width="3.65"/>
  <type id="special3" priority="1" speed="22.22" allow="custom1 custom2" discard="1" width="3.65"/>
  <type id="stop" priority="1" speed="13.89" disallow="pedestrian tram rail_urban rail rail_electric rail_fast ship" width="3.65"/>
  <type id="tram" priority="2" speed="13.89" allow="tram" width="3.65"/>
  <edge id=":1001_0" function="internal">
    <lane id=":1001_0_0" index="0" disallow="pedestrian tram rail_urban rail rail_electric rail_fast ship" speed="4.08" length="5.84" width="4.00" shape="551.26,190.22 550.70,191.94 549.87,192.69 548.78,192.48 547.41,191.30">
      <param key="origId" value="1002_-1"/>
    </lane>
  </edge>
  <edge id=":1003_0" function="internal">
    <lane id=":1003_0_0" index="0" disallow="pedestrian tram rail_urban rail rail_electric rail_fast ship" speed="4.09" length="5.86" width="4.00" shape="476.77,479.25 478.42,480.00 479.07,480.90 478.74,481.97 477.42,483.21">
      <param key="origId" value="1004_-1"/>
    </lane>
  </edge>
  <edge id=":1005_0" function="internal">
    <lane id=":1005_0_0" index="0" disallow="pedestrian tram rail_urban rail rail_electric rail_fast ship" speed="4.08" length="5.84" width="4.00" shape="609.61,116.77 610.03,115.02 610.79,114.20 611.90,114.32 613.36,115.38">
      <param key="origId" value="1006_-1"/>
    </lane>
  </edge>
  <edge id=":188_0" function="internal">
    <lane id=":188_0_0" index="0" disallow="pedestrian tram rail_urban rail rail_electric rail_fast ship" speed="8.62" length="11.60" width="4.00" shape="504.88,212.63 501.37,212.44 498.48,212.96 496.21,214.20 494.55,216.15">
      <param key="origId" value="300_-1"/>
    </lane>
  </edge>
  <edge id=":188_1" function="internal">
    <lane id=":188_1_0" index="0" disallow="pedestrian tram rail_urban rail rail_electric rail_fast ship" speed="8.45" length="15.68" width="4.00" shape="504.88,212.63 500.86,211.42 498.19,209.15 496.88,205.81 496.92,201.42">
      <param key="origId" value="299_-1"/>
    </lane>
  </edge>
  <edge id=":188_2" function="internal">
    <lane id=":188_2_0" index="0" disallow="pedestrian tram rail_urban rail rail_electric rail_fast ship" speed="6.66" length="9.24" width="4.00" shape="500.87,201.99 500.84,204.62 501.59,206.61 503.13,207.96 505.45,208.68">
      <param key="origId" value="304_-1"/>
    </lane>
  </edge>
  <edge id=":188_3" function="internal">
    <lane id=":188_3_0" index="0" disallow="pedestrian tram rail_urban rail rail_electric rail_fast ship" speed="13.89" length="15.60" width="4.00" shape="500.87,201.99 499.94,205.68 498.39,209.30 496.50,212.81 494.55,216.15">
      <param key="origId" value="303_-1"/>
    </lane>
  </edge>
  <edge id=":188_4" function="internal">
    <lane id=":188_4_0" index="0" disallow="pedestrian tram rail_urban rail rail_electric rail_fast ship" speed="13.89" length="14.10" width="4.00" shape="491.09,214.15 492.96,211.03 494.68,208.02 496.06,204.89 496.92,201.42">
      <param key="origId" value="302_-1"/>
    </lane>
  </edge>
  <edge id=":188_5" function="internal">
    <lane id=":188_5_0" index="0" disallow="pedestrian tram rail_urban rail rail_electric rail_fast ship" speed="10.13" length="6.54" width="4.00" shape="491.09,214.15 493.51,211.19 495.85,209.80">
      <param key="origId" value="301_-1"/>
    </lane>
  </edge>
  <edge id=":188_6" function="internal">
    <lane id=":188_6_0" index="0" disallow="pedestrian tram rail_urban rail rail_electric rail_fast ship" speed="10.13" length="9.84" width="4.00" shape="495.85,209.80 496.70,209.29 500.69,208.45 505.45,208.68">
      <param key="origId" value="301_-1"/>
    </lane>
  </edge>
  <edge id=":189_0" function="internal">
    <lane id=":189_0_0" index="0" disallow="pedestrian tram rail_urban rail rail_electric rail_fast ship" speed="13.74" length="19.48" width="4.00" shape="393.03,188.22 387.74,185.63 382.88,184.14 378.45,183.75 374.45,184.48">
      <param key="origId" value="310_-1"/>
    </lane>
  </edge>
  <edge id=":189_1" function="internal">
    <lane id=":189_1_0" index="0" disallow="pedestrian tram rail_urban rail rail_electric rail_fast ship" speed="13.89" length="22.66" width="4.00" shape="393.03,188.22 388.93,185.42 383.98,181.33 379.41,176.88 376.46,172.97">
      <param key="origId" value="309_-1"/>
    </lane>
  </edge>
  <edge id=":189_2" function="internal">
    <lane id=":189_2_0" index="0" disallow="pedestrian tram rail_urban rail rail_electric rail_fast ship" speed="13.89" length="20.42" width="4.00" shape="380.01,171.13 382.72,174.78 386.75,178.67 391.16,182.20 395.01,184.75">
      <param key="origId" value="306_-1"/>
    </lane>
  </edge>
  <edge id=":189_3" function="internal">
    <lane id=":189_3_0" index="0" disallow="pedestrian tram rail_urban rail rail_electric rail_fast ship" speed="8.37" length="5.26" width="4.00" shape="380.01,171.13 381.56,175.62 381.51,176.13">
      <param key="origId" value="305_-1"/>
    </lane>
  </edge>
  <edge id=":189_6" function="internal">
    <lane id=":189_6_0" index="0" disallow="pedestrian tram rail_urban rail rail_electric rail_fast ship" speed="8.37" length="11.87" width="4.00" shape="381.51,176.13 381.15,179.34 378.78,182.30 374.45,184.48">
      <param key="origId" value="305_-1"/>
    </lane>
  </edge>
  <edge id=":189_4" function="internal">
    <lane id=":189_4_0" index="0" disallow="pedestrian tram rail_urban rail rail_electric rail_fast ship" speed="6.55" length="9.94" width="4.00" shape="373.17,180.69 375.70,179.42 377.10,177.71 377.35,175.56 376.46,172.97">
      <param key="origId" value="308_-1"/>
    </lane>
  </edge>
  <edge id=":189_5" function="internal">
    <lane id=":189_5_0" index="0" disallow="pedestrian tram rail_urban rail rail_electric rail_fast ship" speed="13.89" length="22.86" width="4.00" shape="373.17,180.69 378.01,179.77 383.26,180.14 388.93,181.80 395.01,184.75">
      <param key="origId" value="307_-1"/>
    </lane>
  </edge>
  <edge id=":190_0" function="internal">
    <lane id=":190_0_0" index="0" disallow="pedestrian tram rail_urban rail rail_electric rail_fast ship" speed="13.89" length="11.87" width="4.00" shape="514.23,258.28 503.94,252.36">
      <param key="origId" value="314_-1"/>
    </lane>
  </edge>
  <edge id=":190_1" function="internal">
    <lane id=":190_1_0" index="0" disallow="pedestrian tram rail_urban rail rail_electric rail_fast ship" speed="13.89" length="11.87" width="4.00" shape="505.93,248.89 516.23,254.81">
      <param key="origId" value="313_-1"/>
    </lane>
  </edge>
  <edge id=":190_2" function="internal">
    <lane id=":190_2_0" index="0" disallow="pedestrian tram rail_urban rail rail_electric rail_fast ship" speed="6.83" length="9.55" width="4.00" shape="506.19,260.50 507.09,258.02 507.02,255.84 505.97,253.95 503.94,252.36">
      <param key="origId" value="312_-1"/>
    </lane>
  </edge>
  <edge id=":190_3" function="internal">
    <lane id=":190_3_0" index="0" disallow="pedestrian tram rail_urban rail rail_electric rail_fast ship" speed="7.68" length="13.04" width="4.00" shape="506.19,260.50 508.56,256.85 511.03,254.69 513.58,254.01 516.23,254.81">
      <param key="origId" value="311_-1"/>
    </lane>
  </edge>
  <edge id=":191_0" function="internal">
    <lane id=":191_0_0" index="0" disallow="pedestrian tram rail_urban rail rail_electric rail_fast ship" speed="6.83" length="9.78" width="4.00" shape="645.43,220.50 644.29,218.17 642.63,216.77 640.43,216.30 637.71,216.75">
      <param key="origId" value="316_-1"/>
    </lane>
  </edge>
  <edge id=":191_1" function="internal">
    <lane id=":191_1_0" index="0" disallow="pedestrian tram rail_urban rail rail_electric rail_fast ship" speed="13.89" length="16.01" width="4.00" shape="645.43,220.50 640.59,205.23">
      <param key="origId" value="315_-1"/>
    </lane>
  </edge>
  <edge id=":191_2" function="internal">
    <lane id=":191_2_0" index="0" disallow="pedestrian tram rail_urban rail rail_electric rail_fast ship" speed="13.89" length="16.05" width="4.00" shape="644.40,204.00 649.25,219.31">
      <param key="origId" value="320_-1"/>
    </lane>
  </edge>
  <edge id=":191_3" function="internal">
    <lane id=":191_3_0" index="0" disallow="pedestrian tram rail_urban rail rail_electric rail_fast ship" speed="8.60" length="7.19" width="4.00" shape="644.40,204.00 645.16,208.44 644.54,211.05">
      <param key="origId" value="319_-1"/>
    </lane>
  </edge>
  <edge id=":191_6" function="internal">
    <lane id=":191_6_0" index="0" disallow="pedestrian tram rail_urban rail rail_electric rail_fast ship" speed="8.60" length="9.29" width="4.00" shape="644.54,211.05 644.30,212.05 641.81,214.82 637.71,216.75">
      <param key="origId" value="319_-1"/>
    </lane>
  </edge>
  <edge id=":191_4" function="internal">
    <lane id=":191_4_0" index="0" disallow="pedestrian tram rail_urban rail rail_electric rail_fast ship" speed="6.85" length="9.96" width="4.00" shape="636.52,212.93 639.02,211.76 640.52,210.09 641.05,207.91 640.59,205.23">
      <param key="origId" value="318_-1"/>
    </lane>
  </edge>
  <edge id=":191_5" function="internal">
    <lane id=":191_5_0" index="0" disallow="pedestrian tram rail_urban rail rail_electric rail_fast ship" speed="8.59" length="16.22" width="4.00" shape="636.52,212.93 640.99,212.20 644.60,213.01 647.35,215.38 649.25,219.31">
      <param key="origId" value="317_-1"/>
    </lane>
  </edge>
  <edge id=":192_0" function="internal">
    <lane id=":192_0_0" index="0" disallow="pedestrian tram rail_urban rail rail_electric rail_fast ship" speed="7.00" length="10.17" width="4.00" shape="597.19,234.30 595.96,231.67 594.26,230.03 592.10,229.38 589.48,229.72">
      <param key="origId" value="326_-1"/>
    </lane>
  </edge>
  <edge id=":192_1" function="internal">
    <lane id=":192_1_0" index="0" disallow="pedestrian tram rail_urban rail rail_electric rail_fast ship" speed="13.89" length="16.52" width="4.00" shape="597.19,234.30 592.57,218.45">
      <param key="origId" value="325_-1"/>
    </lane>
  </edge>
  <edge id=":192_2" function="internal">
    <lane id=":192_2_0" index="0" disallow="pedestrian tram rail_urban rail rail_electric rail_fast ship" speed="8.17" length="7.46" width="4.00" shape="597.19,234.30 597.03,230.61 598.33,227.08">
      <param key="origId" value="324_-1"/>
    </lane>
  </edge>
  <edge id=":192_12" function="internal">
    <lane id=":192_12_0" index="0" disallow="pedestrian tram rail_urban rail rail_electric rail_fast ship" speed="8.17" length="8.02" width="4.00" shape="598.33,227.08 598.43,226.82 600.97,223.67 604.22,221.91">
      <param key="origId" value="324_-1"/>
    </lane>
  </edge>
  <edge id=":192_3" function="internal">
    <lane id=":192_3_0" index="0" disallow="pedestrian tram rail_urban rail rail_electric rail_fast ship" speed="6.63" length="9.72" width="4.00" shape="605.13,225.81 602.62,226.79 601.09,228.33 600.56,230.43 601.00,233.08">
      <param key="origId" value="323_-1"/>
    </lane>
  </edge>
  <edge id=":192_4" function="internal">
    <lane id=":192_4_0" index="0" disallow="pedestrian tram rail_urban rail rail_electric rail_fast ship" speed="13.89" length="16.13" width="4.00" shape="605.13,225.81 589.48,229.72">
      <param key="origId" value="322_-1"/>
    </lane>
  </edge>
  <edge id=":192_5" function="internal">
    <lane id=":192_5_0" index="0" disallow="pedestrian tram rail_urban rail rail_electric rail_fast ship" speed="8.53" length="15.69" width="4.00" shape="605.13,225.81 601.34,225.78 597.53,224.30 594.38,221.73 592.57,218.45">
      <param key="origId" value="321_-1"/>
    </lane>
  </edge>
  <edge id=":192_6" function="internal">
    <lane id=":192_6_0" index="0" disallow="pedestrian tram rail_urban rail rail_electric rail_fast ship" speed="7.01" length="10.18" width="4.00" shape="596.44,217.44 597.50,219.94 599.15,221.52 601.39,222.18 604.22,221.91">
      <param key="origId" value="332_-1"/>
    </lane>
  </edge>
  <edge id=":192_7" function="internal">
    <lane id=":192_7_0" index="0" disallow="pedestrian tram rail_urban rail rail_electric rail_fast ship" speed="13.89" length="16.30" width="4.00" shape="596.44,217.44 601.00,233.08">
      <param key="origId" value="331_-1"/>
    </lane>
  </edge>
  <edge id=":192_8" function="internal">
    <lane id=":192_8_0" index="0" disallow="pedestrian tram rail_urban rail rail_electric rail_fast ship" speed="8.42" length="6.72" width="4.00" shape="596.44,217.44 596.49,221.09 595.41,223.97">
      <param key="origId" value="330_-1"/>
    </lane>
  </edge>
  <edge id=":192_13" function="internal">
    <lane id=":192_13_0" index="0" disallow="pedestrian tram rail_urban rail rail_electric rail_fast ship" speed="8.42" length="8.48" width="4.00" shape="595.41,223.97 595.10,224.79 592.64,227.89 589.48,229.72">
      <param key="origId" value="330_-1"/>
    </lane>
  </edge>
  <edge id=":192_9" function="internal">
    <lane id=":192_9_0" index="0" disallow="pedestrian tram rail_urban rail rail_electric rail_fast ship" speed="6.87" length="9.68" width="4.00" shape="588.36,225.88 590.76,224.79 592.26,223.19 592.87,221.07 592.57,218.45">
      <param key="origId" value="329_-1"/>
    </lane>
  </edge>
  <edge id=":192_10" function="internal">
    <lane id=":192_10_0" index="0" disallow="pedestrian tram rail_urban rail rail_electric rail_fast ship" speed="13.89" length="16.35" width="4.00" shape="588.36,225.88 604.22,221.91">
      <param key="origId" value="328_-1"/>
    </lane>
  </edge>
  <edge id=":192_11" function="internal">
    <lane id=":192_11_0" index="0" disallow="pedestrian tram rail_urban rail rail_electric rail_fast ship" speed="8.53" length="15.69" width="4.00" shape="588.36,225.88 592.09,225.78 595.87,227.24 599.06,229.82 601.00,233.08">
      <param key="origId" value="327_-1"/>
    </lane>
  </edge>
  <edge id=":193_0" function="internal">
    <lane id=":193_0_0" index="0" disallow="pedestrian tram rail_urban rail rail_electric rail_fast ship" speed="13.89" length="12.70" width="4.00" shape="567.53,237.16 564.54,238.77 562.08,240.42 559.88,242.38 557.66,244.94">
      <param key="origId" value="336_-1"/>
    </lane>
  </edge>
  <edge id=":193_1" function="internal">
    <lane id=":193_1_0" index="0" disallow="pedestrian tram rail_urban rail rail_electric rail_fast ship" speed="9.12" length="6.05" width="4.00" shape="567.53,237.16 563.91,238.40 561.69,238.39">
      <param key="origId" value="335_-1"/>
    </lane>
  </edge>
  <edge id=":193_6" function="internal">
    <lane id=":193_6_0" index="0" disallow="pedestrian tram rail_urban rail rail_electric rail_fast ship" speed="9.12" length="8.56" width="4.00" shape="561.69,238.39 560.50,238.38 557.30,237.10 554.31,234.56">
      <param key="origId" value="335_-1"/>
    </lane>
  </edge>
  <edge id=":193_2" function="internal">
    <lane id=":193_2_0" index="0" disallow="pedestrian tram rail_urban rail rail_electric rail_fast ship" speed="7.43" length="9.37" width="4.00" shape="557.27,231.87 559.20,233.51 561.25,234.35 563.43,234.37 565.74,233.59">
      <param key="origId" value="338_-1"/>
    </lane>
  </edge>
  <edge id=":193_3" function="internal">
    <lane id=":193_3_0" index="0" disallow="pedestrian tram rail_urban rail rail_electric rail_fast ship" speed="8.66" length="14.43" width="4.00" shape="557.27,231.87 559.43,235.04 560.22,238.27 559.63,241.58 557.66,244.94">
      <param key="origId" value="337_-1"/>
    </lane>
  </edge>
  <edge id=":193_4" function="internal">
    <lane id=":193_4_0" index="0" disallow="pedestrian tram rail_urban rail rail_electric rail_fast ship" speed="6.90" length="8.73" width="4.00" shape="554.51,242.48 555.72,240.43 556.08,238.43 555.61,236.47 554.31,234.56">
      <param key="origId" value="334_-1"/>
    </lane>
  </edge>
  <edge id=":193_5" function="internal">
    <lane id=":193_5_0" index="0" disallow="pedestrian tram rail_urban rail rail_electric rail_fast ship" speed="13.89" length="14.44" width="4.00" shape="554.51,242.48 556.94,239.74 559.61,237.40 562.53,235.37 565.74,233.59">
      <param key="origId" value="333_-1"/>
    </lane>
  </edge>
  <edge id=":194_0" function="internal">
    <lane id=":194_0_0" index="0" disallow="pedestrian tram rail_urban rail rail_electric rail_fast ship" speed="6.79" length="9.68" width="4.00" shape="498.53,369.52 497.44,367.10 495.83,365.62 493.71,365.07 491.09,365.45">
      <param key="origId" value="341_-1"/>
    </lane>
  </edge>
  <edge id=":194_1" function="internal">
    <lane id=":194_1_0" index="0" disallow="pedestrian tram rail_urban rail rail_electric rail_fast ship" speed="13.89" length="16.02" width="4.00" shape="498.53,369.52 494.11,354.12">
      <param key="origId" value="340_-1"/>
    </lane>
  </edge>
  <edge id=":194_2" function="internal">
    <lane id=":194_2_0" index="0" disallow="pedestrian tram rail_urban rail rail_electric rail_fast ship" speed="7.79" length="13.10" width="4.00" shape="498.53,369.52 497.67,365.21 497.88,361.89 499.16,359.56 501.52,358.21">
      <param key="origId" value="339_-1"/>
    </lane>
  </edge>
  <edge id=":194_3" function="internal">
    <lane id=":194_3_0" index="0" disallow="pedestrian tram rail_urban rail rail_electric rail_fast ship" speed="13.89" length="12.05" width="4.00" shape="502.65,362.05 491.09,365.45">
      <param key="origId" value="343_-1"/>
    </lane>
  </edge>
  <edge id=":194_4" function="internal">
    <lane id=":194_4_0" index="0" disallow="pedestrian tram rail_urban rail rail_electric rail_fast ship" speed="7.75" length="4.66" width="4.00" shape="502.65,362.05 499.93,362.20 498.23,361.27">
      <param key="origId" value="342_-1"/>
    </lane>
  </edge>
  <edge id=":194_7" function="internal">
    <lane id=":194_7_0" index="0" disallow="pedestrian tram rail_urban rail rail_electric rail_fast ship" speed="7.75" length="8.43" width="4.00" shape="498.23,361.27 497.60,360.92 495.66,358.23 494.11,354.12">
      <param key="origId" value="342_-1"/>
    </lane>
  </edge>
  <edge id=":194_5" function="internal">
    <lane id=":194_5_0" index="0" disallow="pedestrian tram rail_urban rail rail_electric rail_fast ship" speed="6.84" length="9.74" width="4.00" shape="489.96,361.61 492.39,360.51 493.89,358.89 494.46,356.76 494.11,354.12">
      <param key="origId" value="345_-1"/>
    </lane>
  </edge>
  <edge id=":194_6" function="internal">
    <lane id=":194_6_0" index="0" disallow="pedestrian tram rail_urban rail rail_electric rail_fast ship" speed="13.89" length="12.05" width="4.00" shape="489.96,361.61 501.52,358.21">
      <param key="origId" value="344_-1"/>
    </lane>
  </edge>
  <edge id=":195_0" function="internal">
    <lane id=":195_0_0" index="0" disallow="pedestrian tram rail_urban rail rail_electric rail_fast ship" speed="11.57" length="17.68" width="4.00" shape="300.54,425.61 299.00,422.56 296.19,419.89 292.10,417.60 286.73,415.69">
      <param key="origId" value="351_-1"/>
    </lane>
  </edge>
  <edge id=":195_1" function="internal">
    <lane id=":195_1_0" index="0" disallow="pedestrian tram rail_urban rail rail_electric rail_fast ship" speed="9.70" length="20.77" width="4.00" shape="300.54,425.61 300.32,421.20 302.29,417.41 306.45,414.23 312.80,411.68">
      <param key="origId" value="350_-1"/>
    </lane>
  </edge>
  <edge id=":195_2" function="internal">
    <lane id=":195_2_0" index="0" disallow="pedestrian tram rail_urban rail rail_electric rail_fast ship" speed="8.21" length="14.50" width="4.00" shape="313.96,415.51 309.18,417.33 305.99,419.44 304.40,421.84 304.40,424.53">
      <param key="origId" value="347_-1"/>
    </lane>
  </edge>
  <edge id=":195_3" function="internal">
    <lane id=":195_3_0" index="0" disallow="pedestrian tram rail_urban rail rail_electric rail_fast ship" speed="13.89" length="27.34" width="4.00" shape="313.96,415.51 308.36,416.34 300.35,416.66 292.34,416.44 286.73,415.69">
      <param key="origId" value="346_-1"/>
    </lane>
  </edge>
  <edge id=":195_4" function="internal">
    <lane id=":195_4_0" index="0" disallow="pedestrian tram rail_urban rail rail_electric rail_fast ship" speed="13.89" length="25.09" width="4.00" shape="287.84,411.84 293.09,412.60 300.33,412.82 307.56,412.51 312.80,411.68">
      <param key="origId" value="349_-1"/>
    </lane>
  </edge>
  <edge id=":195_5" function="internal">
    <lane id=":195_5_0" index="0" disallow="pedestrian tram rail_urban rail rail_electric rail_fast ship" speed="12.79" length="7.44" width="4.00" shape="287.84,411.84 294.18,414.16 294.77,414.51">
      <param key="origId" value="348_-1"/>
    </lane>
  </edge>
  <edge id=":195_6" function="internal">
    <lane id=":195_6_0" index="0" disallow="pedestrian tram rail_urban rail rail_electric rail_fast ship" speed="12.79" length="14.30" width="4.00" shape="294.77,414.51 299.05,417.05 302.46,420.50 304.40,424.53">
      <param key="origId" value="348_-1"/>
    </lane>
  </edge>
  <edge id=":196_0" function="internal">
    <lane id=":196_0_0" index="0" disallow="pedestrian tram rail_urban rail rail_electric rail_fast ship" speed="6.77" length="9.68" width="4.00" shape="528.94,360.60 527.87,358.17 526.28,356.67 524.16,356.12 521.53,356.50">
      <param key="origId" value="354_-1"/>
    </lane>
  </edge>
  <edge id=":196_1" function="internal">
    <lane id=":196_1_0" index="0" disallow="pedestrian tram rail_urban rail rail_electric rail_fast ship" speed="13.89" length="16.10" width="4.00" shape="528.94,360.60 524.60,345.09">
      <param key="origId" value="353_-1"/>
    </lane>
  </edge>
  <edge id=":196_2" function="internal">
    <lane id=":196_2_0" index="0" disallow="pedestrian tram rail_urban rail rail_electric rail_fast ship" speed="8.42" length="15.40" width="4.00" shape="528.94,360.60 528.84,356.91 530.20,353.15 532.67,349.99 535.86,348.12">
      <param key="origId" value="352_-1"/>
    </lane>
  </edge>
  <edge id=":196_3" function="internal">
    <lane id=":196_3_0" index="0" disallow="pedestrian tram rail_urban rail rail_electric rail_fast ship" speed="6.88" length="9.84" width="4.00" shape="536.98,351.96 534.54,353.07 533.02,354.71 532.44,356.86 532.79,359.53">
      <param key="origId" value="357_-1"/>
    </lane>
  </edge>
  <edge id=":196_4" function="internal">
    <lane id=":196_4_0" index="0" disallow="pedestrian tram rail_urban rail rail_electric rail_fast ship" speed="13.89" length="16.11" width="4.00" shape="536.98,351.96 521.53,356.50">
      <param key="origId" value="356_-1"/>
    </lane>
  </edge>
  <edge id=":196_5" function="internal">
    <lane id=":196_5_0" index="0" disallow="pedestrian tram rail_urban rail rail_electric rail_fast ship" speed="8.32" length="7.09" width="4.00" shape="536.98,351.96 533.32,352.08 530.10,350.92">
      <param key="origId" value="355_-1"/>
    </lane>
  </edge>
  <edge id=":196_12" function="internal">
    <lane id=":196_12_0" index="0" disallow="pedestrian tram rail_urban rail rail_electric rail_fast ship" speed="8.32" length="8.21" width="4.00" shape="530.10,350.92 529.57,350.73 526.43,348.27 524.60,345.09">
      <param key="origId" value="355_-1"/>
    </lane>
  </edge>
  <edge id=":196_6" function="internal">
    <lane id=":196_6_0" index="0" disallow="pedestrian tram rail_urban rail rail_electric rail_fast ship" speed="6.77" length="9.68" width="4.00" shape="528.45,344.01 529.52,346.45 531.11,347.94 533.23,348.50 535.86,348.12">
      <param key="origId" value="360_-1"/>
    </lane>
  </edge>
  <edge id=":196_7" function="internal">
    <lane id=":196_7_0" index="0" disallow="pedestrian tram rail_urban rail rail_electric rail_fast ship" speed="13.89" length="16.11" width="4.00" shape="528.45,344.01 532.79,359.53">
      <param key="origId" value="359_-1"/>
    </lane>
  </edge>
  <edge id=":196_8" function="internal">
    <lane id=":196_8_0" index="0" disallow="pedestrian tram rail_urban rail rail_electric rail_fast ship" speed="8.42" length="15.40" width="4.00" shape="528.45,344.01 528.55,347.71 527.18,351.47 524.72,354.63 521.53,356.50">
      <param key="origId" value="358_-1"/>
    </lane>
  </edge>
  <edge id=":196_9" function="internal">
    <lane id=":196_9_0" index="0" disallow="pedestrian tram rail_urban rail rail_electric rail_fast ship" speed="6.87" length="9.84" width="4.00" shape="520.40,352.66 522.85,351.55 524.37,349.91 524.95,347.76 524.60,345.09">
      <param key="origId" value="363_-1"/>
    </lane>
  </edge>
  <edge id=":196_10" function="internal">
    <lane id=":196_10_0" index="0" disallow="pedestrian tram rail_urban rail rail_electric rail_fast ship" speed="13.89" length="16.11" width="4.00" shape="520.40,352.66 535.86,348.12">
      <param key="origId" value="362_-1"/>
    </lane>
  </edge>
  <edge id=":196_11" function="internal">
    <lane id=":196_11_0" index="0" disallow="pedestrian tram rail_urban rail rail_electric rail_fast ship" speed="8.32" length="7.09" width="4.00" shape="520.40,352.66 524.07,352.53 527.29,353.70">
      <param key="origId" value="361_-1"/>
    </lane>
  </edge>
  <edge id=":196_13" function="internal">
    <lane id=":196_13_0" index="0" disallow="pedestrian tram rail_urban rail rail_electric rail_fast ship" speed="8.32" length="8.21" width="4.00" shape="527.29,353.70 527.82,353.89 530.96,356.35 532.79,359.53">
      <param key="origId" value="361_-1"/>
    </lane>
  </edge>
  <edge id=":197_0" function="internal">
    <lane id=":197_0_0" index="0" disallow="pedestrian tram rail_urban rail rail_electric rail_fast ship" speed="6.81" length="9.12" width="4.00" shape="608.60,336.63 607.40,334.47 605.78,333.15 603.75,332.67 601.31,333.03">
      <param key="origId" value="365_-1"/>
    </lane>
  </edge>
  <edge id=":197_1" function="internal">
    <lane id=":197_1_0" index="0" disallow="pedestrian tram rail_urban rail rail_electric rail_fast ship" speed="13.89" length="15.72" width="4.00" shape="608.60,336.63 607.23,332.98 606.03,329.12 605.33,325.21 605.44,321.40">
      <param key="origId" value="364_-1"/>
    </lane>
  </edge>
  <edge id=":197_2" function="internal">