<?xml version='1.0' encoding='UTF-8'?>
<!-- generated on Thu Apr 22 14:34:20 2021 by Eclipse SUMO netconvert Version 1.7.0
<configuration xmlns:xsi="http://www.w3.org/2001/XMLSchema-instance" xsi:noNamespaceSchemaLocation="http://sumo.dlr.de/xsd/netconvertConfiguration.xsd">

    <input>
        <type-files value="/home/yoshida/carla/Co-Simulation/Sumo/util/data/opendrive_netconvert.typ.xml"/>
        <opendrive-files value="/home/yoshida/carla/Import/Package05/Tmp4/Tmp4.xodr"/>
    </input>

    <output>
        <output-file value="/tmp/tmp3xg50vy6/Tmp4.net.xml"/>
        <output.original-names value="true"/>
    </output>

    <processing>
        <geometry.remove value="true"/>
        <geometry.min-radius.fix value="true"/>
        <geometry.max-grade.fix value="false"/>
    </processing>

    <tls_building>
        <tls.discard-loaded value="true"/>
        <tls.left-green.time value="0"/>
    </tls_building>

    <junctions>
        <rectangular-lane-cut value="true"/>
    </junctions>

    <formats>
        <opendrive.import-all-lanes value="true"/>
        <opendrive.curve-resolution value="1"/>
    </formats>

    <report>
        <aggregate-warnings value="5"/>
    </report>

</configuration>
-->
<net xmlns:xsi="http://www.w3.org/2001/XMLSchema-instance" version="1.6" junctionCornerDetail="5" rectangularLaneCut="true" limitTurnSpeed="5.50" xsi:noNamespaceSchemaLocation="http://sumo.dlr.de/xsd/net_file.xsd">
  <location netOffset="2.68,2.69" convBoundary="0.00,0.00,626.20,338.96" origBoundary="0.000000,0.000000,0.000000,0.000000" projParameter="+proj=tmerc +lat_0=36.0677042 +lon_0=136.2181376 +x_0=0 +y_0=0 +ellps=GRS80 +units=m +no_defs"/>
  <type id="bidirectional" priority="1" speed="1.39" disallow="pedestrian tram rail_urban rail rail_electric rail_fast ship" width="3.65"/>
  <type id="biking" priority="-1" speed="5.56" allow="bicycle" width="1.50"/>
  <type id="border" priority="0" speed="1.39" disallow="all" discard="1" width="0.10"/>
  <type id="driving" priority="1" speed="13.89" disallow="pedestrian tram rail_urban rail rail_electric rail_fast ship" width="3.65"/>
  <type id="entry" priority="1" speed="22.22" disallow="pedestrian tram rail_urban rail rail_electric rail_fast ship" width="3.65"/>
  <type id="exit" priority="1" speed="22.22" disallow="pedestrian tram rail_urban rail rail_electric rail_fast ship" width="3.65"/>
  <type id="median" priority="0" speed="1.39" disallow="all" discard="1" width="0.10"/>
  <type id="mwyEntry" priority="1" speed="22.22" allow="private emergency authority army vip passenger hov taxi bus coach delivery truck trailer motorcycle evehicle custom1 custom2" width="3.65"/>
  <type id="mwyExit" priority="1" speed="22.22" allow="private emergency authority army vip passenger hov taxi bus coach delivery truck trailer motorcycle evehicle custom1 custom2" width="3.65"/>
  <type id="none" priority="0" speed="1.39" disallow="all" discard="1" width="1.00"/>
  <type id="offRamp" priority="1" speed="22.22" allow="private emergency authority army vip passenger hov taxi bus coach delivery truck trailer motorcycle evehicle custom1 custom2" width="3.65"/>
  <type id="onRamp" priority="1" speed="22.22" allow="private emergency authority army vip passenger hov taxi bus coach delivery truck trailer motorcycle evehicle custom1 custom2" width="3.65"/>
  <type id="parking" priority="1" speed="1.39" disallow="pedestrian tram rail_urban rail rail_electric rail_fast ship" width="2.50"/>
  <type id="rail" priority="3" speed="33.33" allow="rail_urban rail rail_electric rail_fast" width="3.65"/>
  <type id="restricted" priority="0" speed="13.89" disallow="all" width="3.65"/>
  <type id="roadWorks" priority="0" speed="1.39" allow="authority" width="3.65"/>
  <type id="shoulder" priority="0" speed="1.39" disallow="all" discard="1" width="1.00"/>
  <type id="sidewalk" priority="-2" speed="2.78" allow="pedestrian" width="2.50"/>
  <type id="special1" priority="1" speed="22.22" allow="custom1" discard="1" width="3.65"/>
  <type id="special2" priority="1" speed="22.22" allow="custom2" discard="1" width="3.65"/>
  <type id="special3" priority="1" speed="22.22" allow="custom1 custom2" discard="1" width="3.65"/>
  <type id="stop" priority="1" speed="13.89" disallow="pedestrian tram rail_urban rail rail_electric rail_fast ship" width="3.65"/>
  <type id="tram" priority="2" speed="13.89" allow="tram" width="3.65"/>
  <edge id=":140_0" function="internal">
    <lane id=":140_0_0" index="0" disallow="pedestrian tram rail_urban rail rail_electric rail_fast ship" speed="4.08" length="5.84" width="4.00" shape="56.99,117.53,177.76 55.50,116.51,177.76 55.02,115.50,177.76 55.53,114.51,177.76 57.05,113.53,177.76">
      <param key="origId" value="141_-1"/>
    </lane>
  </edge>
  <edge id=":142_0" function="internal">
    <lane id=":142_0_0" index="0" disallow="pedestrian tram rail_urban rail rail_electric rail_fast ship" speed="4.08" length="5.84" width="4.00" shape="284.50,8.45,189.78 285.53,6.97,189.78 286.53,6.49,189.78 287.53,7.00,189.78 288.50,8.52,189.78">
      <param key="origId" value="143_-1"/>
    </lane>
  </edge>
  <edge id=":144_0" function="internal">
    <lane id=":144_0_0" index="0" disallow="pedestrian tram rail_urban rail rail_electric rail_fast ship" speed="4.08" length="5.84" width="4.00" shape="286.13,272.75,181.55 285.12,274.25,181.55 284.12,274.74,181.55 283.12,274.24,181.55 282.13,272.73,181.55">
      <param key="origId" value="145_-1"/>
    </lane>
  </edge>
  <edge id=":146_0" function="internal">
    <lane id=":146_0_0" index="0" disallow="pedestrian tram rail_urban rail rail_electric rail_fast ship" speed="4.08" length="5.84" width="4.00" shape="0.25,206.86,167.26 -1.37,206.08,167.26 -2.00,205.15,167.26 -1.64,204.09,167.26 -0.30,202.90,167.26">
      <param key="origId" value="147_-1"/>
    </lane>
  </edge>
  <edge id=":148_0" function="internal">
    <lane id=":148_0_0" index="0" disallow="pedestrian tram rail_urban rail rail_electric rail_fast ship" speed="4.08" length="5.84" width="4.00" shape="90.10,0.02,183.62 91.08,-1.49,183.62 92.07,-2.00,183.62 93.08,-1.51,183.62 94.10,-0.02,183.62">
      <param key="origId" value="149_-1"/>
    </lane>
  </edge>
  <edge id=":150_0" function="internal">
    <lane id=":150_0_0" index="0" disallow="pedestrian tram rail_urban rail rail_electric rail_fast ship" speed="4.08" length="5.84" width="4.00" shape="381.61,108.50,191.57 383.11,109.49,191.57 383.61,110.49,191.57 383.11,111.49,191.57 381.61,112.50,191.57">
      <param key="origId" value="151_-1"/>
    </lane>
  </edge>
  <edge id=":152_0" function="internal">
    <lane id=":152_0_0" index="0" disallow="pedestrian tram rail_urban rail rail_electric rail_fast ship" speed="4.08" length="5.84" width="4.00" shape="151.06,339.06,169.09 149.99,340.51,169.09 148.96,340.96,169.09 147.99,340.42,169.09 147.06,338.87,169.09">
      <param key="origId" value="153_-1"/>
    </lane>
  </edge>
  <edge id=":154_0" function="internal">
    <lane id=":154_0_0" index="0" disallow="pedestrian tram rail_urban rail rail_electric rail_fast ship" speed="4.08" length="5.84" width="4.00" shape="230.61,6.14,189.08 231.66,4.67,189.08 232.68,4.20,189.08 233.66,4.73,189.08 234.61,6.26,189.08">
      <param key="origId" value="155_-1"/>
    </lane>
  </edge>
  <edge id=":156_0" function="internal">
    <lane id=":156_0_0" index="0" disallow="pedestrian tram rail_urban rail rail_electric rail_fast ship" speed="4.08" length="5.84" width="4.00" shape="379.20,184.57,188.72 380.67,185.61,188.72 381.15,186.62,188.72 380.62,187.61,188.72 379.10,188.57,188.72">
      <param key="origId" value="157_-1"/>
    </lane>
  </edge>
  <edge id=":158_0" function="internal">
    <lane id=":158_0_0" index="0" disallow="pedestrian tram rail_urban rail rail_electric rail_fast ship" speed="4.08" length="5.84" width="4.00" shape="231.04,271.92,177.37 230.04,273.42,177.39 229.04,273.92,177.40 228.04,273.42,177.41 227.04,271.92,177.43">
      <param key="origId" value="159_-1"/>
    </lane>
  </edge>
  <edge id=":160_0" function="internal">
    <lane id=":160_0_0" index="0" disallow="pedestrian tram rail_urban rail rail_electric rail_fast ship" speed="4.08" length="5.84" width="4.00" shape="380.75,135.25,189.66 382.25,136.25,189.66 382.75,137.25,189.66 382.25,138.25,189.66 380.75,139.25,189.66">
      <param key="origId" value="161_-1"/>
    </lane>
  </edge>
  <edge id=":162_0" function="internal">
    <lane id=":162_0_0" index="0" disallow="pedestrian tram rail_urban rail rail_electric rail_fast ship" speed="4.08" length="5.84" width="4.00" shape="65.73,234.23,172.81 64.20,233.27,172.82 63.68,232.28,172.82 64.16,231.27,172.82 65.63,230.23,172.83">
      <param key="origId" value="163_-1"/>
    </lane>
  </edge>
  <edge id=":164_0" function="internal">
    <lane id=":164_0_0" index="0" disallow="pedestrian tram rail_urban rail rail_electric rail_fast ship" speed="4.08" length="5.84" width="4.00" shape="626.27,236.76,185.93 627.73,237.82,185.93 628.20,238.83,185.93 627.66,239.82,185.93 626.13,240.76,185.93">
      <param key="origId" value="165_-1"/>
    </lane>
  </edge>
  <edge id=":166_0" function="internal">
    <lane id=":166_0_0" index="0" disallow="pedestrian tram rail_urban rail rail_electric rail_fast ship" speed="4.08" length="5.84" width="4.00" shape="128.43,66.28,184.38 126.92,65.29,184.38 126.41,64.30,184.38 126.90,63.29,184.38 128.39,62.28,184.38">
      <param key="origId" value="167_-1"/>
    </lane>
  </edge>
  <edge id=":29_0" function="internal">
    <lane id=":29_0_0" index="0" disallow="pedestrian tram rail_urban rail rail_electric rail_fast ship" speed="13.89" length="18.68" width="4.00" shape="100.19,125.20,177.59 96.62,122.73,177.52 92.14,120.38,177.43 87.45,118.63,177.35 83.24,117.90,177.28">
      <param key="origId" value="47_-1"/>
    </lane>
  </edge>
  <edge id=":29_1" function="internal">
    <lane id=":29_1_0" index="0" disallow="pedestrian tram rail_urban rail rail_electric rail_fast ship" speed="13.89" length="6.81" width="4.00" shape="100.19,125.20,177.59 96.37,121.34,177.58 95.64,120.17,177.57">
      <param key="origId" value="46_-1"/>
    </lane>
  </edge>
  <edge id=":29_6" function="internal">
    <lane id=":29_6_0" index="0" disallow="pedestrian tram rail_urban rail rail_electric rail_fast ship" speed="13.89" length="14.48" width="4.00" shape="95.64,120.17,177.57 93.63,116.96,177.56 91.95,112.03,177.55 91.35,106.58,177.53">
      <param key="origId" value="46_-1"/>
    </lane>
  </edge>
  <edge id=":29_2" function="internal">
    <lane id=":29_2_0" index="0" disallow="pedestrian tram rail_urban rail rail_electric rail_fast ship" speed="12.92" length="17.81" width="4.00" shape="95.35,106.53,177.53 95.85,111.09,177.55 97.25,115.21,177.56 99.55,118.88,177.58 102.73,122.11,177.59">
      <param key="origId" value="45_-1"/>
    </lane>
  </edge>
  <edge id=":29_3" function="internal">
    <lane id=":29_3_0" index="0" disallow="pedestrian tram rail_urban rail rail_electric rail_fast ship" speed="9.17" length="19.06" width="4.00" shape="95.35,106.53,177.53 94.64,111.57,177.46 92.39,115.15,177.41 88.59,117.26,177.35 83.24,117.90,177.28">
      <param key="origId" value="44_-1"/>
    </lane>
  </edge>
  <edge id=":29_4" function="internal">
    <lane id=":29_4_0" index="0" disallow="pedestrian tram rail_urban rail rail_electric rail_fast ship" speed="7.55" length="12.49" width="4.00" shape="83.29,113.90,177.28 86.85,113.49,177.35 89.38,112.13,177.41 90.88,109.82,177.46 91.35,106.58,177.53">
      <param key="origId" value="43_-1"/>
    </lane>
  </edge>
  <edge id=":29_5" function="internal">
    <lane id=":29_5_0" index="0" disallow="pedestrian tram rail_urban rail rail_electric rail_fast ship" speed="13.89" length="21.31" width="4.00" shape="83.29,113.90,177.28 87.90,114.77,177.35 93.44,116.84,177.43 98.77,119.49,177.52 102.73,122.11,177.59">
      <param key="origId" value="42_-1"/>
    </lane>
  </edge>
  <edge id=":30_0" function="internal">
    <lane id=":30_0_0" index="0" disallow="pedestrian tram rail_urban rail rail_electric rail_fast ship" speed="6.87" length="9.95" width="4.00" shape="292.94,112.53,189.57 290.28,112.92,189.31 288.37,114.08,189.09 287.22,116.01,188.87 286.83,118.72,188.60">
      <param key="origId" value="56_-1"/>
    </lane>
  </edge>
  <edge id=":30_1" function="internal">
    <lane id=":30_1_0" index="0" disallow="pedestrian tram rail_urban rail rail_electric rail_fast ship" speed="13.89" length="16.17" width="4.00" shape="292.94,112.53,189.57 276.78,112.84,189.26">
      <param key="origId" value="55_-1"/>
    </lane>
  </edge>
  <edge id=":30_2" function="internal">
    <lane id=":30_2_0" index="0" disallow="pedestrian tram rail_urban rail rail_electric rail_fast ship" speed="8.31" length="15.32" width="4.00" shape="292.94,112.53,189.57 289.38,111.62,189.48 286.17,109.26,189.39 283.86,106.00,189.29 283.00,102.43,189.20">
      <param key="origId" value="54_-1"/>
    </lane>
  </edge>
  <edge id=":30_3" function="internal">
    <lane id=":30_3_0" index="0" disallow="pedestrian tram rail_urban rail rail_electric rail_fast ship" speed="6.76" length="9.69" width="4.00" shape="287.00,102.50,189.20 287.34,105.14,189.30 288.43,107.03,189.39 290.30,108.16,189.47 292.94,108.53,189.57">
      <param key="origId" value="53_-1"/>
    </lane>
  </edge>
  <edge id=":30_4" function="internal">
    <lane id=":30_4_0" index="0" disallow="pedestrian tram rail_urban rail rail_electric rail_fast ship" speed="13.89" length="16.23" width="4.00" shape="287.00,102.50,189.20 286.83,118.72,188.60">
      <param key="origId" value="52_-1"/>
    </lane>
  </edge>
  <edge id=":30_5" function="internal">
    <lane id=":30_5_0" index="0" disallow="pedestrian tram rail_urban rail rail_electric rail_fast ship" speed="8.60" length="7.07" width="4.00" shape="287.00,102.50,189.20 286.05,106.14,189.21 284.11,108.82,189.23">
      <param key="origId" value="51_-1"/>
    </lane>
  </edge>
  <edge id=":30_12" function="internal">
    <lane id=":30_12_0" index="0" disallow="pedestrian tram rail_urban rail rail_electric rail_fast ship" speed="8.60" length="8.57" width="4.00" shape="284.11,108.82,189.23 283.67,109.42,189.23 280.41,111.83,189.25 276.78,112.84,189.26">
      <param key="origId" value="51_-1"/>
    </lane>
  </edge>
  <edge id=":30_6" function="internal">
    <lane id=":30_6_0" index="0" disallow="pedestrian tram rail_urban rail rail_electric rail_fast ship" speed="7.08" length="10.19" width="4.00" shape="276.63,108.84,189.26 279.38,108.35,189.25 281.36,107.12,189.23 282.57,105.15,189.22 283.00,102.43,189.20">
      <param key="origId" value="50_-1"/>
    </lane>
  </edge>
  <edge id=":30_7" function="internal">
    <lane id=":30_7_0" index="0" disallow="pedestrian tram rail_urban rail rail_electric rail_fast ship" speed="13.89" length="16.31" width="4.00" shape="276.63,108.84,189.26 292.94,108.53,189.57">
      <param key="origId" value="49_-1"/>
    </lane>
  </edge>
  <edge id=":30_8" function="internal">
    <lane id=":30_8_0" index="0" disallow="pedestrian tram rail_urban rail rail_electric rail_fast ship" speed="8.26" length="15.40" width="4.00" shape="276.63,108.84,189.26 280.22,109.64,189.10 283.51,111.94,188.93 285.91,115.15,188.76 286.83,118.72,188.60">
      <param key="origId" value="48_-1"/>
    </lane>
  </edge>
  <edge id=":30_9" function="internal">
    <lane id=":30_9_0" index="0" disallow="pedestrian tram rail_urban rail rail_electric rail_fast ship" speed="6.71" length="9.72" width="4.00" shape="282.83,118.70,188.60 282.46,116.05,188.78 281.33,114.19,188.93 279.43,113.12,189.08 276.78,112.84,189.26">
      <param key="origId" value="59_-1"/>
    </lane>
  </edge>
  <edge id=":30_10" function="internal">
    <lane id=":30_10_0" index="0" disallow="pedestrian tram rail_urban rail rail_electric rail_fast ship" speed="13.89" length="16.28" width="4.00" shape="282.83,118.70,188.60 283.00,102.43,189.20">
      <param key="origId" value="58_-1"/>
    </lane>
  </edge>
  <edge id=":30_11" function="internal">
    <lane id=":30_11_0" index="0" disallow="pedestrian tram rail_urban rail rail_electric rail_fast ship" speed="8.41" length="7.27" width="4.00" shape="282.83,118.70,188.60 283.75,115.09,188.83 285.81,112.23,189.05">
      <param key="origId" value="57_-1"/>
    </lane>
  </edge>
  <edge id=":30_13" function="internal">
    <lane id=":30_13_0" index="0" disallow="pedestrian tram rail_urban rail rail_electric rail_fast ship" speed="8.41" length="8.24" width="4.00" shape="285.81,112.23,189.05 286.10,111.82,189.09 289.34,109.45,189.34 292.94,108.53,189.57">
      <param key="origId" value="57_-1"/>
    </lane>
  </edge>
  <edge id=":31_0" function="internal">
    <lane id=":31_0_0" index="0" disallow="pedestrian tram rail_urban rail rail_electric rail_fast ship" speed="7.05" length="10.22" width="4.00" shape="237.63,114.29,188.86 234.84,114.78,188.74 232.85,116.01,188.64 231.65,117.98,188.54 231.25,120.69,188.43">
      <param key="origId" value="65_-1"/>
    </lane>
  </edge>
  <edge id=":31_1" function="internal">
    <lane id=":31_1_0" index="0" disallow="pedestrian tram rail_urban rail rail_electric rail_fast ship" speed="13.89" length="16.41" width="4.00" shape="237.63,114.29,188.86 221.23,114.73,188.43">
      <param key="origId" value="64_-1"/>
    </lane>
  </edge>
  <edge id=":31_2" function="internal">
    <lane id=":31_2_0" index="0" disallow="pedestrian tram rail_urban rail rail_electric rail_fast ship" speed="8.20" length="7.24" width="4.00" shape="237.63,114.29,188.86 234.03,113.46,188.84 231.14,111.40,188.83">
      <param key="origId" value="63_-1"/>
    </lane>
  </edge>
  <edge id=":31_12" function="internal">
    <lane id=":31_12_0" index="0" disallow="pedestrian tram rail_urban rail rail_electric rail_fast ship" speed="8.20" length="8.21" width="4.00" shape="231.14,111.40,188.83 230.75,111.12,188.83 228.38,107.85,188.81 227.53,104.26,188.80">
      <param key="origId" value="63_-1"/>
    </lane>
  </edge>
  <edge id=":31_3" function="internal">
    <lane id=":31_3_0" index="0" disallow="pedestrian tram rail_urban rail rail_electric rail_fast ship" speed="6.66" length="9.72" width="4.00" shape="231.53,104.38,188.80 231.83,107.05,188.82 232.92,108.93,188.83 234.80,110.01,188.84 237.48,110.29,188.86">
      <param key="origId" value="71_-1"/>
    </lane>
  </edge>
  <edge id=":31_4" function="internal">
    <lane id=":31_4_0" index="0" disallow="pedestrian tram rail_urban rail rail_electric rail_fast ship" speed="13.89" length="16.31" width="4.00" shape="231.53,104.38,188.80 231.25,120.69,188.43">
      <param key="origId" value="70_-1"/>
    </lane>
  </edge>
  <edge id=":31_5" function="internal">
    <lane id=":31_5_0" index="0" disallow="pedestrian tram rail_urban rail rail_electric rail_fast ship" speed="8.61" length="15.72" width="4.00" shape="231.53,104.38,188.80 230.54,108.04,188.71 228.15,111.35,188.61 224.87,113.77,188.52 221.23,114.73,188.43">
      <param key="origId" value="69_-1"/>
    </lane>
  </edge>
  <edge id=":31_6" function="internal">
    <lane id=":31_6_0" index="0" disallow="pedestrian tram rail_urban rail rail_electric rail_fast ship" speed="7.09" length="10.26" width="4.00" shape="221.16,110.73,188.43 223.87,110.29,188.53 225.84,109.06,188.61 227.06,107.05,188.70 227.53,104.26,188.80">
      <param key="origId" value="68_-1"/>
    </lane>
  </edge>
  <edge id=":31_7" function="internal">
    <lane id=":31_7_0" index="0" disallow="pedestrian tram rail_urban rail rail_electric rail_fast ship" speed="13.89" length="16.33" width="4.00" shape="221.16,110.73,188.43 237.48,110.29,188.86">
      <param key="origId" value="67_-1"/>
    </lane>
  </edge>
  <edge id=":31_8" function="internal">
    <lane id=":31_8_0" index="0" disallow="pedestrian tram rail_urban rail rail_electric rail_fast ship" speed="8.30" length="6.97" width="4.00" shape="221.16,110.73,188.43 224.73,111.59,188.43 227.41,113.50,188.43">
      <param key="origId" value="66_-1"/>
    </lane>
  </edge>
  <edge id=":31_13" function="internal">
    <lane id=":31_13_0" index="0" disallow="pedestrian tram rail_urban rail rail_electric rail_fast ship" speed="8.30" length="8.36" width="4.00" shape="227.41,113.50,188.43 227.98,113.91,188.43 230.34,117.13,188.43 231.25,120.69,188.43">
      <param key="origId" value="66_-1"/>
    </lane>
  </edge>
  <edge id=":31_9" function="internal">
    <lane id=":31_9_0" index="0" disallow="pedestrian tram rail_urban rail rail_electric rail_fast ship" speed="6.75" length="9.69" width="4.00" shape="227.25,120.67,188.43 226.88,118.04,188.43 225.75,116.17,188.43 223.87,115.07,188.43 221.23,114.73,188.43">
      <param key="origId" value="62_-1"/>
    </lane>
  </edge>
  <edge id=":31_10" function="internal">
    <lane id=":31_10_0" index="0" disallow="pedestrian tram rail_urban rail rail_electric rail_fast ship" speed="13.89" length="16.42" width="4.00" shape="227.25,120.67,188.43 227.53,104.26,188.80">
      <param key="origId" value="61_-1"/>
    </lane>
  </edge>
  <edge id=":31_11" function="internal">
    <lane id=":31_11_0" index="0" disallow="pedestrian tram rail_urban rail rail_electric rail_fast ship" speed="8.57" length="15.70" width="4.00" shape="227.25,120.67,188.43 228.17,117.03,188.53 230.55,113.73,188.64 233.83,111.31,188.76 237.48,110.29,188.86">
      <param key="origId" value="60_-1"/>
    </lane>
  </edge>
  <edge id=":32_0" function="internal">
    <lane id=":32_0_0" index="0" disallow="pedestrian tram rail_urban rail rail_electric rail_fast ship" speed="13.89" length="14.15" width="4.00" shape="163.11,121.34,181.79 162.02,124.77,181.77 161.45,128.16,181.74 161.19,131.63,181.72 161.05,135.26,181.69">
      <param key="origId" value="73_-1"/>
    </lane>
  </edge>
  <edge id=":32_1" function="internal">
    <lane id=":32_1_0" index="0" disallow="pedestrian tram rail_urban rail rail_electric rail_fast ship" speed="9.94" length="5.61" width="4.00" shape="163.11,121.34,181.79 161.21,124.65,181.79 159.88,125.87,181.79">
      <param key="origId" value="72_-1"/>
    </lane>
  </edge>
  <edge id=":32_6" function="internal">
    <lane id=":32_6_0" index="0" disallow="pedestrian tram rail_urban rail rail_electric rail_fast ship" speed="9.94" length="9.54" width="4.00" shape="159.88,125.87,181.79 158.59,127.05,181.79 155.24,128.54,181.79 151.16,129.13,181.79">
      <param key="origId" value="72_-1"/>
    </lane>
  </edge>
  <edge id=":32_2" function="internal">
    <lane id=":32_2_0" index="0" disallow="pedestrian tram rail_urban rail rail_electric rail_fast ship" speed="8.39" length="10.52" width="4.00" shape="151.04,125.13,181.79 153.92,124.73,181.79 156.27,123.71,181.79 158.10,122.08,181.79 159.40,119.84,181.79">
      <param key="origId" value="77_-1"/>
    </lane>
  </edge>
  <edge id=":32_3" function="internal">
    <lane id=":32_3_0" index="0" disallow="pedestrian tram rail_urban rail rail_electric rail_fast ship" speed="8.44" length="16.52" width="4.00" shape="151.04,125.13,181.79 155.59,125.65,181.76 158.77,127.51,181.74 160.59,130.71,181.72 161.05,135.26,181.69">
      <param key="origId" value="76_-1"/>
    </lane>
  </edge>
  <edge id=":32_4" function="internal">
    <lane id=":32_4_0" index="0" disallow="pedestrian tram rail_urban rail rail_electric rail_fast ship" speed="6.65" length="9.72" width="4.00" shape="157.05,135.09,181.69 156.78,132.41,181.72 155.71,130.53,181.74 153.84,129.43,181.76 151.16,129.13,181.79">
      <param key="origId" value="75_-1"/>
    </lane>
  </edge>
  <edge id=":32_5" function="internal">
    <lane id=":32_5_0" index="0" disallow="pedestrian tram rail_urban rail rail_electric rail_fast ship" speed="13.89" length="15.51" width="4.00" shape="157.05,135.09,181.69 157.24,131.25,181.72 157.60,127.33,181.74 158.27,123.47,181.77 159.40,119.84,181.79">
      <param key="origId" value="74_-1"/>
    </lane>
  </edge>
  <edge id=":33_0" function="internal">
    <lane id=":33_0_0" index="0" disallow="pedestrian tram rail_urban rail rail_electric rail_fast ship" speed="5.57" length="6.17" width="4.00" shape="292.56,186.46,187.77 291.19,186.27,187.74 289.17,185.97,187.68 287.33,185.85,187.64 286.52,186.25,187.61">
      <param key="origId" value="81_-1"/>
    </lane>
  </edge>
  <edge id=":33_1" function="internal">
    <lane id=":33_1_0" index="0" disallow="pedestrian tram rail_urban rail rail_electric rail_fast ship" speed="8.63" length="16.15" width="4.00" shape="292.56,186.46,187.77 288.17,185.73,187.77 285.04,183.80,187.76 283.17,180.67,187.76 282.57,176.33,187.75">
      <param key="origId" value="80_-1"/>
    </lane>
  </edge>
  <edge id=":33_2" function="internal">
    <lane id=":33_2_0" index="0" disallow="pedestrian tram rail_urban rail rail_electric rail_fast ship" speed="6.88" length="9.79" width="4.00" shape="286.57,176.35,187.75 286.94,178.96,187.76 288.08,180.85,187.76 289.98,182.02,187.77 292.66,182.46,187.77">
      <param key="origId" value="79_-1"/>
    </lane>
  </edge>
  <edge id=":33_3" function="internal">
    <lane id=":33_3_0" index="0" disallow="pedestrian tram rail_urban rail rail_electric rail_fast ship" speed="13.89" length="9.90" width="4.00" shape="286.57,176.35,187.75 286.52,186.25,187.61">
      <param key="origId" value="78_-1"/>
    </lane>
  </edge>
  <edge id=":33_4" function="internal">
    <lane id=":33_4_0" index="0" disallow="pedestrian tram rail_urban rail rail_electric rail_fast ship" speed="13.89" length="9.90" width="4.00" shape="282.52,186.23,187.67 282.57,176.33,187.75">
      <param key="origId" value="83_-1"/>
    </lane>
  </edge>
  <edge id=":33_5" function="internal">
    <lane id=":33_5_0" index="0" disallow="pedestrian tram rail_urban rail rail_electric rail_fast ship" speed="7.37" length="3.48" width="4.00" shape="282.52,186.23,187.67 283.16,184.48,187.69 284.53,183.61,187.70">
      <param key="origId" value="82_-1"/>
    </lane>
  </edge>
  <edge id=":33_6" function="internal">
    <lane id=":33_6_0" index="0" disallow="pedestrian tram rail_urban rail rail_electric rail_fast ship" speed="7.37" length="8.30" width="4.00" shape="284.53,183.61,187.70 285.06,183.28,187.71 288.23,182.60,187.73 292.66,182.46,187.77">
      <param key="origId" value="82_-1"/>
    </lane>
  </edge>
  <edge id=":34_0" function="internal">
    <lane id=":34_0_0" index="0" disallow="pedestrian tram rail_urban rail rail_electric rail_fast ship" speed="6.70" length="9.73" width="4.00" shape="227.02,198.47,183.04 226.64,195.82,182.84 225.50,193.97,182.67 223.60,192.91,182.51 220.94,192.65,182.30">
      <param key="origId" value="95_-1"/>
    </lane>
  </edge>
  <edge id=":34_1" function="internal">
    <lane id=":34_1_0" index="0" disallow="pedestrian tram rail_urban rail rail_electric rail_fast ship" speed="13.89" length="40.19" width="4.00" shape="227.02,198.47,183.04 227.12,158.30,184.34">
      <param key="origId" value="94_-1"/>
    </lane>
  </edge>
  <edge id=":34_2" function="internal">
    <lane id=":34_2_0" index="0" disallow="pedestrian tram rail_urban rail rail_electric rail_fast ship" speed="8.76" length="7.24" width="4.00" shape="227.02,198.47,183.04 227.65,194.03,183.04 229.04,191.66,183.04">
      <param key="origId" value="93_-1"/>
    </lane>
  </edge>
  <edge id=":34_12" function="internal">
    <lane id=":34_12_0" index="0" disallow="pedestrian tram rail_urban rail rail_electric rail_fast ship" speed="8.76" length="9.22" width="4.00" shape="229.04,191.66,183.04 229.54,190.80,183.04 232.69,188.78,183.04 237.11,187.98,183.04">
      <param key="origId" value="93_-1"/>
    </lane>
  </edge>
  <edge id=":34_3" function="internal">
    <lane id=":34_3_0" index="0" disallow="pedestrian tram rail_urban rail rail_electric rail_fast ship" speed="7.04" length="10.18" width="4.00" shape="237.26,191.98,183.04 234.53,192.47,183.04 232.58,193.72,183.04 231.41,195.72,183.04 231.02,198.47,183.04">
      <param key="origId" value="89_-1"/>
    </lane>
  </edge>
  <edge id=":34_4" function="internal">
    <lane id=":34_4_0" index="0" disallow="pedestrian tram rail_urban rail rail_electric rail_fast ship" speed="13.89" length="16.35" width="4.00" shape="237.26,191.98,183.04 220.94,192.65,182.30">
      <param key="origId" value="88_-1"/>
    </lane>
  </edge>
  <edge id=":34_5" function="internal">
    <lane id=":34_5_0" index="0" disallow="pedestrian tram rail_urban rail rail_electric rail_fast ship" speed="12.59" length="37.57" width="4.00" shape="237.26,191.98,183.04 232.78,190.02,183.21 229.60,183.76,183.46 227.72,173.18,183.83 227.12,158.30,184.34">
      <param key="origId" value="87_-1"/>
    </lane>
  </edge>
  <edge id=":34_6" function="internal">
    <lane id=":34_6_0" index="0" disallow="pedestrian tram rail_urban rail rail_electric rail_fast ship" speed="11.56" length="31.50" width="4.00" shape="231.12,158.31,184.34 231.46,171.38,183.80 232.57,180.68,183.42 234.45,186.22,183.17 237.11,187.98,183.04">
      <param key="origId" value="86_-1"/>
    </lane>
  </edge>
  <edge id=":34_7" function="internal">
    <lane id=":34_7_0" index="0" disallow="pedestrian tram rail_urban rail rail_electric rail_fast ship" speed="13.89" length="40.18" width="4.00" shape="231.12,158.31,184.34 231.02,198.47,183.04">
      <param key="origId" value="85_-1"/>
    </lane>
  </edge>
  <edge id=":34_8" function="internal">
    <lane id=":34_8_0" index="0" disallow="pedestrian tram rail_urban rail rail_electric rail_fast ship" speed="13.07" length="22.65" width="4.00" shape="231.12,158.31,184.34 230.45,173.17,183.54 229.07,180.79,183.13">
      <param key="origId" value="84_-1"/>
    </lane>
  </edge>
  <edge id=":34_13" function="internal">
    <lane id=":34_13_0" index="0" disallow="pedestrian tram rail_urban rail rail_electric rail_fast ship" speed="13.07" length="15.33" width="4.00" shape="229.07,180.79,183.13 228.52,183.84,182.96 225.35,190.34,182.57 220.94,192.65,182.30">
      <param key="origId" value="84_-1"/>
    </lane>
  </edge>
  <edge id=":34_9" function="internal">