<?xml version="1.0" encoding="UTF-8"?>

<!-- generated on Thu Aug  5 13:35:32 2021 by Eclipse SUMO duarouter Version 1.7.0
<configuration xmlns:xsi="http://www.w3.org/2001/XMLSchema-instance" xsi:noNamespaceSchemaLocation="http://sumo.dlr.de/xsd/duarouterConfiguration.xsd">

    <input>
        <net-file value="./3lane/map.net.xml"/>
        <route-files value="./3lane/map_p_3.trip.xml"/>
    </input>

    <output>
        <output-file value="./3lane/map_p_3.rou.xml"/>
        <alternatives-output value="./3lane/map_p_3.rou.alt.xml"/>
    </output>

    <time>
        <begin value="0"/>
        <end value="3600"/>
    </time>

    <report>
        <no-warnings value="true"/>
        <ignore-errors value="true"/>
        <no-step-log value="true"/>
    </report>

</configuration>
-->

<routes xmlns:xsi="http://www.w3.org/2001/XMLSchema-instance" xsi:noNamespaceSchemaLocation="http://sumo.dlr.de/xsd/routes_file.xsd">
    <vehicle id="0" depart="0.00" departLane="best" departPos="free" departSpeed="0.00">
        <route edges="0.0.00"/>
    </vehicle>
    <vehicle id="1" depart="0.33" departLane="best" departPos="free" departSpeed="0.00">
        <route edges="-0.0.00"/>
    </vehicle>
    <vehicle id="2" depart="0.67" departLane="best" departPos="free" departSpeed="0.00">
        <route edges="0.0.00 -0.0.00"/>
    </vehicle>
    <vehicle id="3" depart="1.00" departLane="best" departPos="free" departSpeed="0.00">
        <route edges="0.0.00 -0.0.00"/>
    </vehicle>
    <vehicle id="4" depart="1.33" departLane="best" departPos="free" departSpeed="0.00">
        <route edges="-0.0.00 0.0.00"/>
    </vehicle>
    <vehicle id="5" depart="1.67" departLane="best" departPos="free" departSpeed="0.00">
        <route edges="0.0.00"/>
    </vehicle>
    <vehicle id="6" depart="2.00" departLane="best" departPos="free" departSpeed="0.00">
        <route edges="-0.0.00 0.0.00"/>
    </vehicle>
    <vehicle id="7" depart="2.33" departLane="best" departPos="free" departSpeed="0.00">
        <route edges="0.0.00 -0.0.00"/>
    </vehicle>
    <vehicle id="8" depart="2.67" departLane="best" departPos="free" departSpeed="0.00">
        <route edges="0.0.00"/>
    </vehicle>
    <vehicle id="9" depart="3.00" departLane="best" departPos="free" departSpeed="0.00">
        <route edges="0.0.00"/>
    </vehicle>
    <vehicle id="10" depart="3.33" departLane="best" departPos="free" departSpeed="0.00">
        <route edges="-0.0.00 0.0.00"/>
    </vehicle>
    <vehicle id="11" depart="3.67" departLane="best" departPos="free" departSpeed="0.00">
        <route edges="0.0.00"/>
    </vehicle>
    <vehicle id="12" depart="4.00" departLane="best" departPos="free" departSpeed="0.00">
        <route edges="-0.0.00"/>
    </vehicle>
    <vehicle id="13" depart="4.33" departLane="best" departPos="free" departSpeed="0.00">
        <route edges="-0.0.00 0.0.00"/>
    </vehicle>
    <vehicle id="14" depart="4.67" departLane="best" departPos="free" departSpeed="0.00">
        <route edges="0.0.00"/>
    </vehicle>
    <vehicle id="15" depart="5.00" departLane="best" departPos="free" departSpeed="0.00">
        <route edges="-0.0.00 0.0.00"/>
    </vehicle>
    <vehicle id="16" depart="5.33" departLane="best" departPos="free" departSpeed="0.00">
        <route edges="-0.0.00 0.0.00"/>
    </vehicle>
    <vehicle id="17" depart="5.67" departLane="best" departPos="free" departSpeed="0.00">
        <route edges="0.0.00 -0.0.00"/>
    </vehicle>
    <vehicle id="18" depart="6.00" departLane="best" departPos="free" departSpeed="0.00">
        <route edges="0.0.00 -0.0.00"/>
    </vehicle>
    <vehicle id="19" depart="6.33" departLane="best" departPos="free" departSpeed="0.00">
        <route edges="0.0.00"/>
    </vehicle>
    <vehicle id="20" depart="6.67" departLane="best" departPos="free" departSpeed="0.00">
        <route edges="-0.0.00"/>
    </vehicle>
    <vehicle id="21" depart="7.00" departLane="best" departPos="free" departSpeed="0.00">
        <route edges="0.0.00 -0.0.00"/>
    </vehicle>
    <vehicle id="22" depart="7.33" departLane="best" departPos="free" departSpeed="0.00">
        <route edges="-0.0.00 0.0.00"/>
    </vehicle>
    <vehicle id="23" depart="7.67" departLane="best" departPos="free" departSpeed="0.00">
        <route edges="-0.0.00 0.0.00"/>
    </vehicle>
    <vehicle id="24" depart="8.00" departLane="best" departPos="free" departSpeed="0.00">
        <route edges="-0.0.00 0.0.00"/>
    </vehicle>
    <vehicle id="25" depart="8.33" departLane="best" departPos="free" departSpeed="0.00">
        <route edges="0.0.00 -0.0.00"/>
    </vehicle>
    <vehicle id="26" depart="8.67" departLane="best" departPos="free" departSpeed="0.00">
        <route edges="-0.0.00"/>
    </vehicle>
    <vehicle id="27" depart="9.00" departLane="best" departPos="free" departSpeed="0.00">
        <route edges="0.0.00"/>
    </vehicle>
    <vehicle id="28" depart="9.33" departLane="best" departPos="free" departSpeed="0.00">
        <route edges="-0.0.00 0.0.00"/>
    </vehicle>
    <vehicle id="29" depart="9.67" departLane="best" departPos="free" departSpeed="0.00">
        <route edges="0.0.00"/>
    </vehicle>
    <vehicle id="30" depart="10.00" departLane="best" departPos="free" departSpeed="0.00">
        <route edges="0.0.00"/>
    </vehicle>
    <vehicle id="31" depart="10.33" departLane="best" departPos="free" departSpeed="0.00">
        <route edges="0.0.00"/>
    </vehicle>
    <vehicle id="32" depart="10.67" departLane="best" departPos="free" departSpeed="0.00">
        <route edges="0.0.00 -0.0.00"/>
    </vehicle>
    <vehicle id="33" depart="11.00" departLane="best" departPos="free" departSpeed="0.00">
        <route edges="0.0.00 -0.0.00"/>
    </vehicle>
    <vehicle id="34" depart="11.33" departLane="best" departPos="free" departSpeed="0.00">
        <route edges="0.0.00 -0.0.00"/>
    </vehicle>
    <vehicle id="35" depart="11.67" departLane="best" departPos="free" departSpeed="0.00">
        <route edges="-0.0.00"/>
    </vehicle>
    <vehicle id="36" depart="12.00" departLane="best" departPos="free" departSpeed="0.00">
        <route edges="0.0.00"/>
    </vehicle>
    <vehicle id="37" depart="12.33" departLane="best" departPos="free" departSpeed="0.00">
        <route edges="-0.0.00"/>
    </vehicle>
    <vehicle id="38" depart="12.67" departLane="best" departPos="free" departSpeed="0.00">
        <route edges="0.0.00"/>
    </vehicle>
    <vehicle id="39" depart="13.00" departLane="best" departPos="free" departSpeed="0.00">
        <route edges="0.0.00"/>
    </vehicle>
    <vehicle id="40" depart="13.33" departLane="best" departPos="free" departSpeed="0.00">
        <route edges="0.0.00"/>
    </vehicle>
    <vehicle id="41" depart="13.67" departLane="best" departPos="free" departSpeed="0.00">
        <route edges="0.0.00 -0.0.00"/>
    </vehicle>
    <vehicle id="42" depart="14.00" departLane="best" departPos="free" departSpeed="0.00">
        <route edges="0.0.00 -0.0.00"/>
    </vehicle>
    <vehicle id="43" depart="14.33" departLane="best" departPos="free" departSpeed="0.00">
        <route edges="0.0.00"/>
    </vehicle>
    <vehicle id="44" depart="14.67" departLane="best" departPos="free" departSpeed="0.00">
        <route edges="0.0.00"/>
    </vehicle>
    <vehicle id="45" depart="15.00" departLane="best" departPos="free" departSpeed="0.00">
        <route edges="0.0.00"/>
    </vehicle>
    <vehicle id="46" depart="15.33" departLane="best" departPos="free" departSpeed="0.00">
        <route edges="-0.0.00 0.0.00"/>
    </vehicle>
    <vehicle id="47" depart="15.67" departLane="best" departPos="free" departSpeed="0.00">
        <route edges="0.0.00"/>
    </vehicle>
    <vehicle id="48" depart="16.00" departLane="best" departPos="free" departSpeed="0.00">
        <route edges="0.0.00 -0.0.00"/>
    </vehicle>
    <vehicle id="49" depart="16.33" departLane="best" departPos="free" departSpeed="0.00">
        <route edges="0.0.00 -0.0.00"/>
    </vehicle>
    <vehicle id="50" depart="16.67" departLane="best" departPos="free" departSpeed="0.00">
        <route edges="0.0.00"/>
    </vehicle>
    <vehicle id="51" depart="17.00" departLane="best" departPos="free" departSpeed="0.00">
        <route edges="-0.0.00 0.0.00"/>
    </vehicle>
    <vehicle id="52" depart="17.33" departLane="best" departPos="free" departSpeed="0.00">
        <route edges="-0.0.00"/>
    </vehicle>
    <vehicle id="53" depart="17.67" departLane="best" departPos="free" departSpeed="0.00">
        <route edges="0.0.00 -0.0.00"/>
    </vehicle>
    <vehicle id="54" depart="18.00" departLane="best" departPos="free" departSpeed="0.00">
        <route edges="0.0.00 -0.0.00"/>
    </vehicle>
    <vehicle id="55" depart="18.33" departLane="best" departPos="free" departSpeed="0.00">
        <route edges="-0.0.00 0.0.00"/>
    </vehicle>
    <vehicle id="56" depart="18.67" departLane="best" departPos="free" departSpeed="0.00">
        <route edges="-0.0.00 0.0.00"/>
    </vehicle>
    <vehicle id="57" depart="19.00" departLane="best" departPos="free" departSpeed="0.00">
        <route edges="0.0.00"/>
    </vehicle>
    <vehicle id="58" depart="19.33" departLane="best" departPos="free" departSpeed="0.00">
        <route edges="0.0.00 -0.0.00"/>
    </vehicle>
    <vehicle id="59" depart="19.67" departLane="best" departPos="free" departSpeed="0.00">
        <route edges="0.0.00"/>
    </vehicle>
    <vehicle id="60" depart="20.00" departLane="best" departPos="free" departSpeed="0.00">
        <route edges="0.0.00 -0.0.00"/>
    </vehicle>
    <vehicle id="61" depart="20.33" departLane="best" departPos="free" departSpeed="0.00">
        <route edges="-0.0.00 0.0.00"/>
    </vehicle>
    <vehicle id="62" depart="20.67" departLane="best" departPos="free" departSpeed="0.00">
        <route edges="-0.0.00"/>
    </vehicle>
    <vehicle id="63" depart="21.00" departLane="best" departPos="free" departSpeed="0.00">
        <route edges="0.0.00 -0.0.00"/>
    </vehicle>
    <vehicle id="64" depart="21.33" departLane="best" departPos="free" departSpeed="0.00">
        <route edges="-0.0.00"/>
    </vehicle>
    <vehicle id="65" depart="21.67" departLane="best" departPos="free" departSpeed="0.00">
        <route edges="0.0.00"/>
    </vehicle>
    <vehicle id="66" depart="22.00" departLane="best" departPos="free" departSpeed="0.00">
        <route edges="-0.0.00"/>
    </vehicle>
    <vehicle id="67" depart="22.33" departLane="best" departPos="free" departSpeed="0.00">
        <route edges="-0.0.00"/>
    </vehicle>
    <vehicle id="68" depart="22.67" departLane="best" departPos="free" departSpeed="0.00">
        <route edges="-0.0.00 0.0.00"/>
    </vehicle>
    <vehicle id="69" depart="23.00" departLane="best" departPos="free" departSpeed="0.00">
        <route edges="-0.0.00"/>
    </vehicle>
    <vehicle id="70" depart="23.33" departLane="best" departPos="free" departSpeed="0.00">
        <route edges="0.0.00 -0.0.00"/>
    </vehicle>
    <vehicle id="71" depart="23.67" departLane="best" departPos="free" departSpeed="0.00">
        <route edges="-0.0.00 0.0.00"/>
    </vehicle>
    <vehicle id="72" depart="24.00" departLane="best" departPos="free" departSpeed="0.00">
        <route edges="-0.0.00"/>
    </vehicle>
    <vehicle id="73" depart="24.33" departLane="best" departPos="free" departSpeed="0.00">
        <route edges="0.0.00"/>
    </vehicle>
    <vehicle id="74" depart="24.67" departLane="best" departPos="free" departSpeed="0.00">
        <route edges="0.0.00 -0.0.00"/>
    </vehicle>
    <vehicle id="75" depart="25.00" departLane="best" departPos="free" departSpeed="0.00">
        <route edges="0.0.00"/>
    </vehicle>
    <vehicle id="76" depart="25.33" departLane="best" departPos="free" departSpeed="0.00">
        <route edges="-0.0.00 0.0.00"/>
    </vehicle>
    <vehicle id="77" depart="25.67" departLane="best" departPos="free" departSpeed="0.00">
        <route edges="0.0.00 -0.0.00"/>
    </vehicle>
    <vehicle id="78" depart="26.00" departLane="best" departPos="free" departSpeed="0.00">
        <route edges="-0.0.00 0.0.00"/>
    </vehicle>
    <vehicle id="79" depart="26.33" departLane="best" departPos="free" departSpeed="0.00">
        <route edges="-0.0.00"/>
    </vehicle>
    <vehicle id="80" depart="26.67" departLane="best" departPos="free" departSpeed="0.00">
        <route edges="-0.0.00"/>
    </vehicle>
    <vehicle id="81" depart="27.00" departLane="best" departPos="free" departSpeed="0.00">
        <route edges="0.0.00"/>
    </vehicle>
    <vehicle id="82" depart="27.33" departLane="best" departPos="free" departSpeed="0.00">
        <route edges="-0.0.00"/>
    </vehicle>
    <vehicle id="83" depart="27.67" departLane="best" departPos="free" departSpeed="0.00">
        <route edges="0.0.00 -0.0.00"/>
    </vehicle>
    <vehicle id="84" depart="28.00" departLane="best" departPos="free" departSpeed="0.00">
        <route edges="0.0.00 -0.0.00"/>
    </vehicle>
    <vehicle id="85" depart="28.33" departLane="best" departPos="free" departSpeed="0.00">
        <route edges="0.0.00 -0.0.00"/>
    </vehicle>
    <vehicle id="86" depart="28.67" departLane="best" departPos="free" departSpeed="0.00">
        <route edges="-0.0.00"/>
    </vehicle>
    <vehicle id="87" depart="29.00" departLane="best" departPos="free" departSpeed="0.00">
        <route edges="-0.0.00 0.0.00"/>
    </vehicle>
    <vehicle id="88" depart="29.33" departLane="best" departPos="free" departSpeed="0.00">
        <route edges="-0.0.00"/>
    </vehicle>
    <vehicle id="89" depart="29.67" departLane="best" departPos="free" departSpeed="0.00">
        <route edges="-0.0.00 0.0.00"/>
    </vehicle>
    <vehicle id="90" depart="30.00" departLane="best" departPos="free" departSpeed="0.00">
        <route edges="0.0.00"/>
    </vehicle>
    <vehicle id="91" depart="30.33" departLane="best" departPos="free" departSpeed="0.00">
        <route edges="0.0.00 -0.0.00"/>
    </vehicle>
    <vehicle id="92" depart="30.67" departLane="best" departPos="free" departSpeed="0.00">
        <route edges="-0.0.00 0.0.00"/>
    </vehicle>
    <vehicle id="93" depart="31.00" departLane="best" departPos="free" departSpeed="0.00">
        <route edges="-0.0.00"/>
    </vehicle>
    <vehicle id="94" depart="31.33" departLane="best" departPos="free" departSpeed="0.00">
        <route edges="-0.0.00"/>
    </vehicle>
    <vehicle id="95" depart="31.67" departLane="best" departPos="free" departSpeed="0.00">
        <route edges="0.0.00 -0.0.00"/>
    </vehicle>
    <vehicle id="96" depart="32.00" departLane="best" departPos="free" departSpeed="0.00">
        <route edges="0.0.00"/>
    </vehicle>
    <vehicle id="97" depart="32.33" departLane="best" departPos="free" departSpeed="0.00">
        <route edges="-0.0.00"/>
    </vehicle>
    <vehicle id="98" depart="32.67" departLane="best" departPos="free" departSpeed="0.00">
        <route edges="0.0.00 -0.0.00"/>
    </vehicle>
    <vehicle id="99" depart="33.00" departLane="best" departPos="free" departSpeed="0.00">
        <route edges="0.0.00 -0.0.00"/>
    </vehicle>
    <vehicle id="100" depart="33.33" departLane="best" departPos="free" departSpeed="0.00">
        <route edges="-0.0.00"/>
    </vehicle>
    <vehicle id="101" depart="33.67" departLane="best" departPos="free" departSpeed="0.00">
        <route edges="-0.0.00 0.0.00"/>
    </vehicle>
    <vehicle id="102" depart="34.00" departLane="best" departPos="free" departSpeed="0.00">
        <route edges="-0.0.00 0.0.00"/>
    </vehicle>
    <vehicle id="103" depart="34.33" departLane="best" departPos="free" departSpeed="0.00">
        <route edges="0.0.00"/>
    </vehicle>
    <vehicle id="104" depart="34.67" departLane="best" departPos="free" departSpeed="0.00">
        <route edges="-0.0.00"/>
    </vehicle>
    <vehicle id="105" depart="35.00" departLane="best" departPos="free" departSpeed="0.00">
        <route edges="-0.0.00 0.0.00"/>
    </vehicle>
    <vehicle id="106" depart="35.33" departLane="best" departPos="free" departSpeed="0.00">
        <route edges="0.0.00"/>
    </vehicle>
    <vehicle id="107" depart="35.67" departLane="best" departPos="free" departSpeed="0.00">
        <route edges="-0.0.00 0.0.00"/>
    </vehicle>
    <vehicle id="108" depart="36.00" departLane="best" departPos="free" departSpeed="0.00">
        <route edges="0.0.00 -0.0.00"/>
    </vehicle>
    <vehicle id="109" depart="36.33" departLane="best" departPos="free" departSpeed="0.00">
        <route edges="0.0.00"/>
    </vehicle>
    <vehicle id="110" depart="36.67" departLane="best" departPos="free" departSpeed="0.00">
        <route edges="-0.0.00 0.0.00"/>
    </vehicle>
    <vehicle id="111" depart="37.00" departLane="best" departPos="free" departSpeed="0.00">
        <route edges="-0.0.00"/>
    </vehicle>
    <vehicle id="112" depart="37.33" departLane="best" departPos="free" departSpeed="0.00">
        <route edges="0.0.00 -0.0.00"/>
    </vehicle>
    <vehicle id="113" depart="37.67" departLane="best" departPos="free" departSpeed="0.00">
        <route edges="0.0.00"/>
    </vehicle>
    <vehicle id="114" depart="38.00" departLane="best" departPos="free" departSpeed="0.00">
        <route edges="-0.0.00"/>
    </vehicle>
    <vehicle id="115" depart="38.33" departLane="best" departPos="free" departSpeed="0.00">
        <route edges="0.0.00"/>
    </vehicle>
    <vehicle id="116" depart="38.67" departLane="best" departPos="free" departSpeed="0.00">
        <route edges="-0.0.00 0.0.00"/>
    </vehicle>
    <vehicle id="117" depart="39.00" departLane="best" departPos="free" departSpeed="0.00">
        <route edges="-0.0.00 0.0.00"/>
    </vehicle>
    <vehicle id="118" depart="39.33" departLane="best" departPos="free" departSpeed="0.00">
        <route edges="-0.0.00"/>
    </vehicle>
    <vehicle id="119" depart="39.67" departLane="best" departPos="free" departSpeed="0.00">
        <route edges="-0.0.00"/>
    </vehicle>
    <vehicle id="120" depart="40.00" departLane="best" departPos="free" departSpeed="0.00">
        <route edges="0.0.00"/>
    </vehicle>
    <vehicle id="121" depart="40.33" departLane="best" departPos="free" departSpeed="0.00">
        <route edges="-0.0.00 0.0.00"/>
    </vehicle>
    <vehicle id="122" depart="40.67" departLane="best" departPos="free" departSpeed="0.00">
        <route edges="0.0.00 -0.0.00"/>
    </vehicle>
    <vehicle id="123" depart="41.00" departLane="best" departPos="free" departSpeed="0.00">
        <route edges="0.0.00 -0.0.00"/>
    </vehicle>
    <vehicle id="124" depart="41.33" departLane="best" departPos="free" departSpeed="0.00">
        <route edges="-0.0.00"/>
    </vehicle>
    <vehicle id="125" depart="41.67" departLane="best" departPos="free" departSpeed="0.00">
        <route edges="0.0.00"/>
    </vehicle>
    <vehicle id="126" depart="42.00" departLane="best" departPos="free" departSpeed="0.00">
        <route edges="0.0.00"/>
    </vehicle>
    <vehicle id="127" depart="42.33" departLane="best" departPos="free" departSpeed="0.00">
        <route edges="0.0.00 -0.0.00"/>
    </vehicle>
    <vehicle id="128" depart="42.67" departLane="best" departPos="free" departSpeed="0.00">
        <route edges="0.0.00"/>
    </vehicle>
    <vehicle id="129" depart="43.00" departLane="best" departPos="free" departSpeed="0.00">
        <route edges="0.0.00"/>
    </vehicle>
    <vehicle id="130" depart="43.33" departLane="best" departPos="free" departSpeed="0.00">
        <route edges="0.0.00"/>
    </vehicle>
    <vehicle id="131" depart="43.67" departLane="best" departPos="free" departSpeed="0.00">
        <route edges="-0.0.00 0.0.00"/>
    </vehicle>
    <vehicle id="132" depart="44.00" departLane="best" departPos="free" departSpeed="0.00">
        <route edges="-0.0.00 0.0.00"/>
    </vehicle>
    <vehicle id="133" depart="44.33" departLane="best" departPos="free" departSpeed="0.00">
        <route edges="-0.0.00"/>
    </vehicle>
    <vehicle id="134" depart="44.67" departLane="best" departPos="free" departSpeed="0.00">
        <route edges="-0.0.00 0.0.00"/>
    </vehicle>
    <vehicle id="135" depart="45.00" departLane="best" departPos="free" departSpeed="0.00">
        <route edges="0.0.00 -0.0.00"/>
    </vehicle>
    <vehicle id="136" depart="45.33" departLane="best" departPos="free" departSpeed="0.00">
        <route edges="0.0.00 -0.0.00"/>
    </vehicle>
    <vehicle id="137" depart="45.67" departLane="best" departPos="free" departSpeed="0.00">
        <route edges="-0.0.00 0.0.00"/>
    </vehicle>
    <vehicle id="138" depart="46.00" departLane="best" departPos="free" departSpeed="0.00">
        <route edges="-0.0.00"/>
    </vehicle>
    <vehicle id="139" depart="46.33" departLane="best" departPos="free" departSpeed="0.00">
        <route edges="0.0.00 -0.0.00"/>
    </vehicle>
    <vehicle id="140" depart="46.67" departLane="best" departPos="free" departSpeed="0.00">
        <route edges="-0.0.00"/>
    </vehicle>
    <vehicle id="141" depart="47.00" departLane="best" departPos="free" departSpeed="0.00">
        <route edges="-0.0.00"/>
    </vehicle>
    <vehicle id="142" depart="47.33" departLane="best" departPos="free" departSpeed="0.00">
        <route edges="0.0.00 -0.0.00"/>
    </vehicle>
    <vehicle id="143" depart="47.67" departLane="best" departPos="free" departSpeed="0.00">
        <route edges="-0.0.00"/>
    </vehicle>
    <vehicle id="144" depart="48.00" departLane="best" departPos="free" departSpeed="0.00">
        <route edges="-0.0.00"/>
    </vehicle>
    <vehicle id="145" depart="48.33" departLane="best" departPos="free" departSpeed="0.00">
        <route edges="0.0.00 -0.0.00"/>
    </vehicle>
    <vehicle id="146" depart="48.67" departLane="best" departPos="free" departSpeed="0.00">
        <route edges="0.0.00"/>
    </vehicle>
    <vehicle id="147" depart="49.00" departLane="best" departPos="free" departSpeed="0.00">
        <route edges="-0.0.00"/>
    </vehicle>
    <vehicle id="148" depart="49.33" departLane="best" departPos="free" departSpeed="0.00">
        <route edges="0.0.00 -0.0.00"/>
    </vehicle>
    <vehicle id="149" depart="49.67" departLane="best" departPos="free" departSpeed="0.00">
        <route edges="-0.0.00 0.0.00"/>
    </vehicle>
    <vehicle id="150" depart="50.00" departLane="best" departPos="free" departSpeed="0.00">
        <route edges="0.0.00"/>
    </vehicle>
    <vehicle id="151" depart="50.33" departLane="best" departPos="free" departSpeed="0.00">
        <route edges="0.0.00 -0.0.00"/>
    </vehicle>
    <vehicle id="152" depart="50.67" departLane="best" departPos="free" departSpeed="0.00">
        <route edges="0.0.00"/>
    </vehicle>
    <vehicle id="153" depart="51.00" departLane="best" departPos="free" departSpeed="0.00">
        <route edges="-0.0.00"/>
    </vehicle>
    <vehicle id="154" depart="51.33" departLane="best" departPos="free" departSpeed="0.00">
        <route edges="0.0.00 -0.0.00"/>
    </vehicle>
    <vehicle id="155" depart="51.67" departLane="best" departPos="free" departSpeed="0.00">
        <route edges="-0.0.00"/>
    </vehicle>
    <vehicle id="156" depart="52.00" departLane="best" departPos="free" departSpeed="0.00">
        <route edges="0.0.00 -0.0.00"/>
    </vehicle>
    <vehicle id="157" depart="52.33" departLane="best" departPos="free" departSpeed="0.00">
        <route edges="-0.0.00 0.0.00"/>
    </vehicle>
    <vehicle id="158" depart="52.67" departLane="best" departPos="free" departSpeed="0.00">
        <route edges="0.0.00 -0.0.00"/>
    </vehicle>
    <vehicle id="159" depart="53.00" departLane="best" departPos="free" departSpeed="0.00">
        <route edges="-0.0.00 0.0.00"/>
    </vehicle>
    <vehicle id="160" depart="53.33" departLane="best" departPos="free" departSpeed="0.00">
        <route edges="-0.0.00 0.0.00"/>
    </vehicle>
    <vehicle id="161" depart="53.67" departLane="best" departPos="free" departSpeed="0.00">
        <route edges="-0.0.00"/>
    </vehicle>
    <vehicle id="162" depart="54.00" departLane="best" departPos="free" departSpeed="0.00">
        <route edges="-0.0.00 0.0.00"/>
    </vehicle>
    <vehicle id="163" depart="54.33" departLane="best" departPos="free" departSpeed="0.00">
        <route edges="0.0.00"/>
    </vehicle>
    <vehicle id="164" depart="54.67" departLane="best" departPos="free" departSpeed="0.00">
        <route edges="-0.0.00 0.0.00"/>
    </vehicle>
    <vehicle id="165" depart="55.00" departLane="best" departPos="free" departSpeed="0.00">
        <route edges="-0.0.00"/>
    </vehicle>
    <vehicle id="166" depart="55.33" departLane="best" departPos="free" departSpeed="0.00">
        <route edges="-0.0.00"/>
    </vehicle>
    <vehicle id="167" depart="55.67" departLane="best" departPos="free" departSpeed="0.00">
        <route edges="0.0.00 -0.0.00"/>
    </vehicle>
    <vehicle id="168" depart="56.00" departLane="best" departPos="free" departSpeed="0.00">
        <route edges="-0.0.00"/>
    </vehicle>
    <vehicle id="169" depart="56.33" departLane="best" departPos="free" departSpeed="0.00">
        <route edges="-0.0.00 0.0.00"/>
    </vehicle>
    <vehicle id="170" depart="56.67" departLane="best" departPos="free" departSpeed="0.00">
        <route edges="-0.0.00 0.0.00"/>
    </vehicle>
    <vehicle id="171" depart="57.00" departLane="best" departPos="free" departSpeed="0.00">
        <route edges="0.0.00 -0.0.00"/>
    </vehicle>
    <vehicle id="172" depart="57.33" departLane="best" departPos="free" departSpeed="0.00">
        <route edges="-0.0.00 0.0.00"/>
    </vehicle>
    <vehicle id="173" depart="57.67" departLane="best" departPos="free" departSpeed="0.00">
        <route edges="0.0.00 -0.0.00"/>
    </vehicle>
    <vehicle id="174" depart="58.00" departLane="best" departPos="free" departSpeed="0.00">
        <route edges="0.0.00 -0.0.00"/>
    </vehicle>
    <vehicle id="175" depart="58.33" departLane="best" departPos="free" departSpeed="0.00">
        <route edges="-0.0.00"/>
    </vehicle>
    <vehicle id="176" depart="58.67" departLane="best" departPos="free" departSpeed="0.00">
        <route edges="0.0.00 -0.0.00"/>
    </vehicle>
    <vehicle id="177" depart="59.00" departLane="best" departPos="free" departSpeed="0.00">
        <route edges="0.0.00 -0.0.00"/>
    </vehicle>
    <vehicle id="178" depart="59.33" departLane="best" departPos="free" departSpeed="0.00">
        <route edges="-0.0.00 0.0.00"/>
    </vehicle>
    <vehicle id="179" depart="59.67" departLane="best" departPos="free" departSpeed="0.00">
        <route edges="0.0.00"/>
    </vehicle>
    <vehicle id="180" depart="60.00" departLane="best" departPos="free" departSpeed="0.00">
        <route edges="-0.0.00"/>
    </vehicle>
    <vehicle id="181" depart="60.33" departLane="best" departPos="free" departSpeed="0.00">
        <route edges="-0.0.00 0.0.00"/>
    </vehicle>
    <vehicle id="182" depart="60.67" departLane="best" departPos="free" departSpeed="0.00">
        <route edges="0.0.00"/>
    </vehicle>
    <vehicle id="183" depart="61.00" departLane="best" departPos="free" departSpeed="0.00">
        <route edges="0.0.00"/>
    </vehicle>
    <vehicle id="184" depart="61.33" departLane="best" departPos="free" departSpeed="0.00">
        <route edges="-0.0.00"/>
    </vehicle>
    <vehicle id="185" depart="61.67" departLane="best" departPos="free" departSpeed="0.00">
        <route edges="0.0.00 -0.0.00"/>
    </vehicle>
    <vehicle id="186" depart="62.00" departLane="best" departPos="free" departSpeed="0.00">
        <route edges="-0.0.00"/>
    </vehicle>
    <vehicle id="187" depart="62.33" departLane="best" departPos="free" departSpeed="0.00">
        <route edges="-0.0.00 0.0.00"/>
    </vehicle>
    <vehicle id="188" depart="62.67" departLane="best" departPos="free" departSpeed="0.00">
        <route edges="-0.0.00"/>
    </vehicle>
    <vehicle id="189" depart="63.00" departLane="best" departPos="free" departSpeed="0.00">
        <route edges="-0.0.00 0.0.00"/>
    </vehicle>
    <vehicle id="190" depart="63.33" departLane="best" departPos="free" departSpeed="0.00">
        <route edges="0.0.00"/>
    </vehicle>
    <vehicle id="191" depart="63.67" departLane="best" departPos="free" departSpeed="0.00">
        <route edges="0.0.00"/>
    </vehicle>
    <vehicle id="192" depart="64.00" departLane="best" departPos="free" departSpeed="0.00">
        <route edges="0.0.00"/>
    </vehicle>
    <vehicle id="193" depart="64.33" departLane="best" departPos="free" departSpeed="0.00">
        <route edges="0.0.00"/>
    </vehicle>
    <vehicle id="194" depart="64.67" departLane="best" departPos="free" departSpeed="0.00">
        <route edges="0.0.00"/>
    </vehicle>
    <vehicle id="195" depart="65.00" departLane="best" departPos="free" departSpeed="0.00">
        <route edges="0.0.00 -0.0.00"/>
    </vehicle>
    <vehicle id="196" depart="65.33" departLane="best" departPos="free" departSpeed="0.00">
        <route edges="0.0.00"/>
    </vehicle>
    <vehicle id="197" depart="65.67" departLane="best" departPos="free" departSpeed="0.00">
        <route edges="0.0.00 -0.0.00"/>
    </vehicle>
    <vehicle id="198" depart="66.00" departLane="best" departPos="free" departSpeed="0.00">
        <route edges="0.0.00 -0.0.00"/>
    </vehicle>
    <vehicle id="199" depart="66.33" departLane="best" departPos="free" departSpeed="0.00">
        <route edges="0.0.00"/>
    </vehicle>
    <vehicle id="200" depart="66.67" departLane="best" departPos="free" departSpeed="0.00">
        <route edges="0.0.00"/>
    </vehicle>
    <vehicle id="201" depart="67.00" departLane="best" departPos="free" departSpeed="0.00">
        <route edges="-0.0.00"/>
    </vehicle>
    <vehicle id="202" depart="67.33" departLane="best" departPos="free" departSpeed="0.00">
        <route edges="0.0.00 -0.0.00"/>
    </vehicle>
    <vehicle id="203" depart="67.67" departLane="best" departPos="free" departSpeed="0.00">