<?xml version="1.0" encoding="UTF-8"?>

<!-- generated on Thu Aug  5 13:35:36 2021 by Eclipse SUMO duarouter Version 1.7.0
<configuration xmlns:xsi="http://www.w3.org/2001/XMLSchema-instance" xsi:noNamespaceSchemaLocation="http://sumo.dlr.de/xsd/duarouterConfiguration.xsd">

    <input>
        <net-file value="./3lane/map.net.xml"/>
        <route-files value="./3lane/map_p_6.trip.xml"/>
    </input>

    <output>
        <output-file value="./3lane/map_p_6.rou.xml"/>
        <alternatives-output value="./3lane/map_p_6.rou.alt.xml"/>
    </output>

    <time>
        <begin value="0"/>
        <end value="3600"/>
    </time>

    <report>
        <no-warnings value="true"/>
        <ignore-errors value="true"/>
        <no-step-log value="true"/>
    </report>

</configuration>
-->

<routes xmlns:xsi="http://www.w3.org/2001/XMLSchema-instance" xsi:noNamespaceSchemaLocation="http://sumo.dlr.de/xsd/routes_file.xsd">
    <vehicle id="0" depart="0.00" departLane="best" departPos="free" departSpeed="0.00">
        <route edges="0.0.00"/>
    </vehicle>
    <vehicle id="1" depart="0.17" departLane="best" departPos="free" departSpeed="0.00">
        <route edges="-0.0.00"/>
    </vehicle>
    <vehicle id="2" depart="0.33" departLane="best" departPos="free" departSpeed="0.00">
        <route edges="0.0.00 -0.0.00"/>
    </vehicle>
    <vehicle id="3" depart="0.50" departLane="best" departPos="free" departSpeed="0.00">
        <route edges="0.0.00 -0.0.00"/>
    </vehicle>
    <vehicle id="4" depart="0.67" departLane="best" departPos="free" departSpeed="0.00">
        <route edges="-0.0.00 0.0.00"/>
    </vehicle>
    <vehicle id="5" depart="0.83" departLane="best" departPos="free" departSpeed="0.00">
        <route edges="0.0.00"/>
    </vehicle>
    <vehicle id="6" depart="1.00" departLane="best" departPos="free" departSpeed="0.00">
        <route edges="-0.0.00 0.0.00"/>
    </vehicle>
    <vehicle id="7" depart="1.17" departLane="best" departPos="free" departSpeed="0.00">
        <route edges="0.0.00 -0.0.00"/>
    </vehicle>
    <vehicle id="8" depart="1.33" departLane="best" departPos="free" departSpeed="0.00">
        <route edges="0.0.00"/>
    </vehicle>
    <vehicle id="9" depart="1.50" departLane="best" departPos="free" departSpeed="0.00">
        <route edges="0.0.00"/>
    </vehicle>
    <vehicle id="10" depart="1.67" departLane="best" departPos="free" departSpeed="0.00">
        <route edges="-0.0.00 0.0.00"/>
    </vehicle>
    <vehicle id="11" depart="1.83" departLane="best" departPos="free" departSpeed="0.00">
        <route edges="0.0.00"/>
    </vehicle>
    <vehicle id="12" depart="2.00" departLane="best" departPos="free" departSpeed="0.00">
        <route edges="-0.0.00"/>
    </vehicle>
    <vehicle id="13" depart="2.17" departLane="best" departPos="free" departSpeed="0.00">
        <route edges="-0.0.00 0.0.00"/>
    </vehicle>
    <vehicle id="14" depart="2.33" departLane="best" departPos="free" departSpeed="0.00">
        <route edges="0.0.00"/>
    </vehicle>
    <vehicle id="15" depart="2.50" departLane="best" departPos="free" departSpeed="0.00">
        <route edges="-0.0.00 0.0.00"/>
    </vehicle>
    <vehicle id="16" depart="2.67" departLane="best" departPos="free" departSpeed="0.00">
        <route edges="-0.0.00 0.0.00"/>
    </vehicle>
    <vehicle id="17" depart="2.83" departLane="best" departPos="free" departSpeed="0.00">
        <route edges="0.0.00 -0.0.00"/>
    </vehicle>
    <vehicle id="18" depart="3.00" departLane="best" departPos="free" departSpeed="0.00">
        <route edges="0.0.00 -0.0.00"/>
    </vehicle>
    <vehicle id="19" depart="3.17" departLane="best" departPos="free" departSpeed="0.00">
        <route edges="0.0.00"/>
    </vehicle>
    <vehicle id="20" depart="3.33" departLane="best" departPos="free" departSpeed="0.00">
        <route edges="-0.0.00"/>
    </vehicle>
    <vehicle id="21" depart="3.50" departLane="best" departPos="free" departSpeed="0.00">
        <route edges="0.0.00 -0.0.00"/>
    </vehicle>
    <vehicle id="22" depart="3.67" departLane="best" departPos="free" departSpeed="0.00">
        <route edges="-0.0.00 0.0.00"/>
    </vehicle>
    <vehicle id="23" depart="3.83" departLane="best" departPos="free" departSpeed="0.00">
        <route edges="-0.0.00 0.0.00"/>
    </vehicle>
    <vehicle id="24" depart="4.00" departLane="best" departPos="free" departSpeed="0.00">
        <route edges="-0.0.00 0.0.00"/>
    </vehicle>
    <vehicle id="25" depart="4.17" departLane="best" departPos="free" departSpeed="0.00">
        <route edges="0.0.00 -0.0.00"/>
    </vehicle>
    <vehicle id="26" depart="4.33" departLane="best" departPos="free" departSpeed="0.00">
        <route edges="-0.0.00"/>
    </vehicle>
    <vehicle id="27" depart="4.50" departLane="best" departPos="free" departSpeed="0.00">
        <route edges="0.0.00"/>
    </vehicle>
    <vehicle id="28" depart="4.67" departLane="best" departPos="free" departSpeed="0.00">
        <route edges="-0.0.00 0.0.00"/>
    </vehicle>
    <vehicle id="29" depart="4.83" departLane="best" departPos="free" departSpeed="0.00">
        <route edges="0.0.00"/>
    </vehicle>
    <vehicle id="30" depart="5.00" departLane="best" departPos="free" departSpeed="0.00">
        <route edges="0.0.00"/>
    </vehicle>
    <vehicle id="31" depart="5.17" departLane="best" departPos="free" departSpeed="0.00">
        <route edges="0.0.00"/>
    </vehicle>
    <vehicle id="32" depart="5.33" departLane="best" departPos="free" departSpeed="0.00">
        <route edges="0.0.00 -0.0.00"/>
    </vehicle>
    <vehicle id="33" depart="5.50" departLane="best" departPos="free" departSpeed="0.00">
        <route edges="0.0.00 -0.0.00"/>
    </vehicle>
    <vehicle id="34" depart="5.67" departLane="best" departPos="free" departSpeed="0.00">
        <route edges="0.0.00 -0.0.00"/>
    </vehicle>
    <vehicle id="35" depart="5.83" departLane="best" departPos="free" departSpeed="0.00">
        <route edges="-0.0.00"/>
    </vehicle>
    <vehicle id="36" depart="6.00" departLane="best" departPos="free" departSpeed="0.00">
        <route edges="0.0.00"/>
    </vehicle>
    <vehicle id="37" depart="6.17" departLane="best" departPos="free" departSpeed="0.00">
        <route edges="-0.0.00"/>
    </vehicle>
    <vehicle id="38" depart="6.33" departLane="best" departPos="free" departSpeed="0.00">
        <route edges="0.0.00"/>
    </vehicle>
    <vehicle id="39" depart="6.50" departLane="best" departPos="free" departSpeed="0.00">
        <route edges="0.0.00"/>
    </vehicle>
    <vehicle id="40" depart="6.67" departLane="best" departPos="free" departSpeed="0.00">
        <route edges="0.0.00"/>
    </vehicle>
    <vehicle id="41" depart="6.83" departLane="best" departPos="free" departSpeed="0.00">
        <route edges="0.0.00 -0.0.00"/>
    </vehicle>
    <vehicle id="42" depart="7.00" departLane="best" departPos="free" departSpeed="0.00">
        <route edges="0.0.00 -0.0.00"/>
    </vehicle>
    <vehicle id="43" depart="7.17" departLane="best" departPos="free" departSpeed="0.00">
        <route edges="0.0.00"/>
    </vehicle>
    <vehicle id="44" depart="7.33" departLane="best" departPos="free" departSpeed="0.00">
        <route edges="0.0.00"/>
    </vehicle>
    <vehicle id="45" depart="7.50" departLane="best" departPos="free" departSpeed="0.00">
        <route edges="0.0.00"/>
    </vehicle>
    <vehicle id="46" depart="7.67" departLane="best" departPos="free" departSpeed="0.00">
        <route edges="-0.0.00 0.0.00"/>
    </vehicle>
    <vehicle id="47" depart="7.83" departLane="best" departPos="free" departSpeed="0.00">
        <route edges="0.0.00"/>
    </vehicle>
    <vehicle id="48" depart="8.00" departLane="best" departPos="free" departSpeed="0.00">
        <route edges="0.0.00 -0.0.00"/>
    </vehicle>
    <vehicle id="49" depart="8.17" departLane="best" departPos="free" departSpeed="0.00">
        <route edges="0.0.00 -0.0.00"/>
    </vehicle>
    <vehicle id="50" depart="8.33" departLane="best" departPos="free" departSpeed="0.00">
        <route edges="0.0.00"/>
    </vehicle>
    <vehicle id="51" depart="8.50" departLane="best" departPos="free" departSpeed="0.00">
        <route edges="-0.0.00 0.0.00"/>
    </vehicle>
    <vehicle id="52" depart="8.67" departLane="best" departPos="free" departSpeed="0.00">
        <route edges="-0.0.00"/>
    </vehicle>
    <vehicle id="53" depart="8.83" departLane="best" departPos="free" departSpeed="0.00">
        <route edges="0.0.00 -0.0.00"/>
    </vehicle>
    <vehicle id="54" depart="9.00" departLane="best" departPos="free" departSpeed="0.00">
        <route edges="0.0.00 -0.0.00"/>
    </vehicle>
    <vehicle id="55" depart="9.17" departLane="best" departPos="free" departSpeed="0.00">
        <route edges="-0.0.00 0.0.00"/>
    </vehicle>
    <vehicle id="56" depart="9.33" departLane="best" departPos="free" departSpeed="0.00">
        <route edges="-0.0.00 0.0.00"/>
    </vehicle>
    <vehicle id="57" depart="9.50" departLane="best" departPos="free" departSpeed="0.00">
        <route edges="0.0.00"/>
    </vehicle>
    <vehicle id="58" depart="9.67" departLane="best" departPos="free" departSpeed="0.00">
        <route edges="0.0.00 -0.0.00"/>
    </vehicle>
    <vehicle id="59" depart="9.83" departLane="best" departPos="free" departSpeed="0.00">
        <route edges="0.0.00"/>
    </vehicle>
    <vehicle id="60" depart="10.00" departLane="best" departPos="free" departSpeed="0.00">
        <route edges="0.0.00 -0.0.00"/>
    </vehicle>
    <vehicle id="61" depart="10.17" departLane="best" departPos="free" departSpeed="0.00">
        <route edges="-0.0.00 0.0.00"/>
    </vehicle>
    <vehicle id="62" depart="10.33" departLane="best" departPos="free" departSpeed="0.00">
        <route edges="-0.0.00"/>
    </vehicle>
    <vehicle id="63" depart="10.50" departLane="best" departPos="free" departSpeed="0.00">
        <route edges="0.0.00 -0.0.00"/>
    </vehicle>
    <vehicle id="64" depart="10.67" departLane="best" departPos="free" departSpeed="0.00">
        <route edges="-0.0.00"/>
    </vehicle>
    <vehicle id="65" depart="10.83" departLane="best" departPos="free" departSpeed="0.00">
        <route edges="0.0.00"/>
    </vehicle>
    <vehicle id="66" depart="11.00" departLane="best" departPos="free" departSpeed="0.00">
        <route edges="-0.0.00"/>
    </vehicle>
    <vehicle id="67" depart="11.17" departLane="best" departPos="free" departSpeed="0.00">
        <route edges="-0.0.00"/>
    </vehicle>
    <vehicle id="68" depart="11.33" departLane="best" departPos="free" departSpeed="0.00">
        <route edges="-0.0.00 0.0.00"/>
    </vehicle>
    <vehicle id="69" depart="11.50" departLane="best" departPos="free" departSpeed="0.00">
        <route edges="-0.0.00"/>
    </vehicle>
    <vehicle id="70" depart="11.67" departLane="best" departPos="free" departSpeed="0.00">
        <route edges="0.0.00 -0.0.00"/>
    </vehicle>
    <vehicle id="71" depart="11.83" departLane="best" departPos="free" departSpeed="0.00">
        <route edges="-0.0.00 0.0.00"/>
    </vehicle>
    <vehicle id="72" depart="12.00" departLane="best" departPos="free" departSpeed="0.00">
        <route edges="-0.0.00"/>
    </vehicle>
    <vehicle id="73" depart="12.17" departLane="best" departPos="free" departSpeed="0.00">
        <route edges="0.0.00"/>
    </vehicle>
    <vehicle id="74" depart="12.33" departLane="best" departPos="free" departSpeed="0.00">
        <route edges="0.0.00 -0.0.00"/>
    </vehicle>
    <vehicle id="75" depart="12.50" departLane="best" departPos="free" departSpeed="0.00">
        <route edges="0.0.00"/>
    </vehicle>
    <vehicle id="76" depart="12.67" departLane="best" departPos="free" departSpeed="0.00">
        <route edges="-0.0.00 0.0.00"/>
    </vehicle>
    <vehicle id="77" depart="12.83" departLane="best" departPos="free" departSpeed="0.00">
        <route edges="0.0.00 -0.0.00"/>
    </vehicle>
    <vehicle id="78" depart="13.00" departLane="best" departPos="free" departSpeed="0.00">
        <route edges="-0.0.00 0.0.00"/>
    </vehicle>
    <vehicle id="79" depart="13.17" departLane="best" departPos="free" departSpeed="0.00">
        <route edges="-0.0.00"/>
    </vehicle>
    <vehicle id="80" depart="13.33" departLane="best" departPos="free" departSpeed="0.00">
        <route edges="-0.0.00"/>
    </vehicle>
    <vehicle id="81" depart="13.50" departLane="best" departPos="free" departSpeed="0.00">
        <route edges="0.0.00"/>
    </vehicle>
    <vehicle id="82" depart="13.67" departLane="best" departPos="free" departSpeed="0.00">
        <route edges="-0.0.00"/>
    </vehicle>
    <vehicle id="83" depart="13.83" departLane="best" departPos="free" departSpeed="0.00">
        <route edges="0.0.00 -0.0.00"/>
    </vehicle>
    <vehicle id="84" depart="14.00" departLane="best" departPos="free" departSpeed="0.00">
        <route edges="0.0.00 -0.0.00"/>
    </vehicle>
    <vehicle id="85" depart="14.17" departLane="best" departPos="free" departSpeed="0.00">
        <route edges="0.0.00 -0.0.00"/>
    </vehicle>
    <vehicle id="86" depart="14.33" departLane="best" departPos="free" departSpeed="0.00">
        <route edges="-0.0.00"/>
    </vehicle>
    <vehicle id="87" depart="14.50" departLane="best" departPos="free" departSpeed="0.00">
        <route edges="-0.0.00 0.0.00"/>
    </vehicle>
    <vehicle id="88" depart="14.67" departLane="best" departPos="free" departSpeed="0.00">
        <route edges="-0.0.00"/>
    </vehicle>
    <vehicle id="89" depart="14.83" departLane="best" departPos="free" departSpeed="0.00">
        <route edges="-0.0.00 0.0.00"/>
    </vehicle>
    <vehicle id="90" depart="15.00" departLane="best" departPos="free" departSpeed="0.00">
        <route edges="0.0.00"/>
    </vehicle>
    <vehicle id="91" depart="15.17" departLane="best" departPos="free" departSpeed="0.00">
        <route edges="0.0.00 -0.0.00"/>
    </vehicle>
    <vehicle id="92" depart="15.33" departLane="best" departPos="free" departSpeed="0.00">
        <route edges="-0.0.00 0.0.00"/>
    </vehicle>
    <vehicle id="93" depart="15.50" departLane="best" departPos="free" departSpeed="0.00">
        <route edges="-0.0.00"/>
    </vehicle>
    <vehicle id="94" depart="15.67" departLane="best" departPos="free" departSpeed="0.00">
        <route edges="-0.0.00"/>
    </vehicle>
    <vehicle id="95" depart="15.83" departLane="best" departPos="free" departSpeed="0.00">
        <route edges="0.0.00 -0.0.00"/>
    </vehicle>
    <vehicle id="96" depart="16.00" departLane="best" departPos="free" departSpeed="0.00">
        <route edges="0.0.00"/>
    </vehicle>
    <vehicle id="97" depart="16.17" departLane="best" departPos="free" departSpeed="0.00">
        <route edges="-0.0.00"/>
    </vehicle>
    <vehicle id="98" depart="16.33" departLane="best" departPos="free" departSpeed="0.00">
        <route edges="0.0.00 -0.0.00"/>
    </vehicle>
    <vehicle id="99" depart="16.50" departLane="best" departPos="free" departSpeed="0.00">
        <route edges="0.0.00 -0.0.00"/>
    </vehicle>
    <vehicle id="100" depart="16.67" departLane="best" departPos="free" departSpeed="0.00">
        <route edges="-0.0.00"/>
    </vehicle>
    <vehicle id="101" depart="16.83" departLane="best" departPos="free" departSpeed="0.00">
        <route edges="-0.0.00 0.0.00"/>
    </vehicle>
    <vehicle id="102" depart="17.00" departLane="best" departPos="free" departSpeed="0.00">
        <route edges="-0.0.00 0.0.00"/>
    </vehicle>
    <vehicle id="103" depart="17.17" departLane="best" departPos="free" departSpeed="0.00">
        <route edges="0.0.00"/>
    </vehicle>
    <vehicle id="104" depart="17.33" departLane="best" departPos="free" departSpeed="0.00">
        <route edges="-0.0.00"/>
    </vehicle>
    <vehicle id="105" depart="17.50" departLane="best" departPos="free" departSpeed="0.00">
        <route edges="-0.0.00 0.0.00"/>
    </vehicle>
    <vehicle id="106" depart="17.67" departLane="best" departPos="free" departSpeed="0.00">
        <route edges="0.0.00"/>
    </vehicle>
    <vehicle id="107" depart="17.83" departLane="best" departPos="free" departSpeed="0.00">
        <route edges="-0.0.00 0.0.00"/>
    </vehicle>
    <vehicle id="108" depart="18.00" departLane="best" departPos="free" departSpeed="0.00">
        <route edges="0.0.00 -0.0.00"/>
    </vehicle>
    <vehicle id="109" depart="18.17" departLane="best" departPos="free" departSpeed="0.00">
        <route edges="0.0.00"/>
    </vehicle>
    <vehicle id="110" depart="18.33" departLane="best" departPos="free" departSpeed="0.00">
        <route edges="-0.0.00 0.0.00"/>
    </vehicle>
    <vehicle id="111" depart="18.50" departLane="best" departPos="free" departSpeed="0.00">
        <route edges="-0.0.00"/>
    </vehicle>
    <vehicle id="112" depart="18.67" departLane="best" departPos="free" departSpeed="0.00">
        <route edges="0.0.00 -0.0.00"/>
    </vehicle>
    <vehicle id="113" depart="18.83" departLane="best" departPos="free" departSpeed="0.00">
        <route edges="0.0.00"/>
    </vehicle>
    <vehicle id="114" depart="19.00" departLane="best" departPos="free" departSpeed="0.00">
        <route edges="-0.0.00"/>
    </vehicle>
    <vehicle id="115" depart="19.17" departLane="best" departPos="free" departSpeed="0.00">
        <route edges="0.0.00"/>
    </vehicle>
    <vehicle id="116" depart="19.33" departLane="best" departPos="free" departSpeed="0.00">
        <route edges="-0.0.00 0.0.00"/>
    </vehicle>
    <vehicle id="117" depart="19.50" departLane="best" departPos="free" departSpeed="0.00">
        <route edges="-0.0.00 0.0.00"/>
    </vehicle>
    <vehicle id="118" depart="19.67" departLane="best" departPos="free" departSpeed="0.00">
        <route edges="-0.0.00"/>
    </vehicle>
    <vehicle id="119" depart="19.83" departLane="best" departPos="free" departSpeed="0.00">
        <route edges="-0.0.00"/>
    </vehicle>
    <vehicle id="120" depart="20.00" departLane="best" departPos="free" departSpeed="0.00">
        <route edges="0.0.00"/>
    </vehicle>
    <vehicle id="121" depart="20.17" departLane="best" departPos="free" departSpeed="0.00">
        <route edges="-0.0.00 0.0.00"/>
    </vehicle>
    <vehicle id="122" depart="20.33" departLane="best" departPos="free" departSpeed="0.00">
        <route edges="0.0.00 -0.0.00"/>
    </vehicle>
    <vehicle id="123" depart="20.50" departLane="best" departPos="free" departSpeed="0.00">
        <route edges="0.0.00 -0.0.00"/>
    </vehicle>
    <vehicle id="124" depart="20.67" departLane="best" departPos="free" departSpeed="0.00">
        <route edges="-0.0.00"/>
    </vehicle>
    <vehicle id="125" depart="20.83" departLane="best" departPos="free" departSpeed="0.00">
        <route edges="0.0.00"/>
    </vehicle>
    <vehicle id="126" depart="21.00" departLane="best" departPos="free" departSpeed="0.00">
        <route edges="0.0.00"/>
    </vehicle>
    <vehicle id="127" depart="21.17" departLane="best" departPos="free" departSpeed="0.00">
        <route edges="0.0.00 -0.0.00"/>
    </vehicle>
    <vehicle id="128" depart="21.33" departLane="best" departPos="free" departSpeed="0.00">
        <route edges="0.0.00"/>
    </vehicle>
    <vehicle id="129" depart="21.50" departLane="best" departPos="free" departSpeed="0.00">
        <route edges="0.0.00"/>
    </vehicle>
    <vehicle id="130" depart="21.67" departLane="best" departPos="free" departSpeed="0.00">
        <route edges="0.0.00"/>
    </vehicle>
    <vehicle id="131" depart="21.83" departLane="best" departPos="free" departSpeed="0.00">
        <route edges="-0.0.00 0.0.00"/>
    </vehicle>
    <vehicle id="132" depart="22.00" departLane="best" departPos="free" departSpeed="0.00">
        <route edges="-0.0.00 0.0.00"/>
    </vehicle>
    <vehicle id="133" depart="22.17" departLane="best" departPos="free" departSpeed="0.00">
        <route edges="-0.0.00"/>
    </vehicle>
    <vehicle id="134" depart="22.33" departLane="best" departPos="free" departSpeed="0.00">
        <route edges="-0.0.00 0.0.00"/>
    </vehicle>
    <vehicle id="135" depart="22.50" departLane="best" departPos="free" departSpeed="0.00">
        <route edges="0.0.00 -0.0.00"/>
    </vehicle>
    <vehicle id="136" depart="22.67" departLane="best" departPos="free" departSpeed="0.00">
        <route edges="0.0.00 -0.0.00"/>
    </vehicle>
    <vehicle id="137" depart="22.83" departLane="best" departPos="free" departSpeed="0.00">
        <route edges="-0.0.00 0.0.00"/>
    </vehicle>
    <vehicle id="138" depart="23.00" departLane="best" departPos="free" departSpeed="0.00">
        <route edges="-0.0.00"/>
    </vehicle>
    <vehicle id="139" depart="23.17" departLane="best" departPos="free" departSpeed="0.00">
        <route edges="0.0.00 -0.0.00"/>
    </vehicle>
    <vehicle id="140" depart="23.33" departLane="best" departPos="free" departSpeed="0.00">
        <route edges="-0.0.00"/>
    </vehicle>
    <vehicle id="141" depart="23.50" departLane="best" departPos="free" departSpeed="0.00">
        <route edges="-0.0.00"/>
    </vehicle>
    <vehicle id="142" depart="23.67" departLane="best" departPos="free" departSpeed="0.00">
        <route edges="0.0.00 -0.0.00"/>
    </vehicle>
    <vehicle id="143" depart="23.83" departLane="best" departPos="free" departSpeed="0.00">
        <route edges="-0.0.00"/>
    </vehicle>
    <vehicle id="144" depart="24.00" departLane="best" departPos="free" departSpeed="0.00">
        <route edges="-0.0.00"/>
    </vehicle>
    <vehicle id="145" depart="24.17" departLane="best" departPos="free" departSpeed="0.00">
        <route edges="0.0.00 -0.0.00"/>
    </vehicle>
    <vehicle id="146" depart="24.33" departLane="best" departPos="free" departSpeed="0.00">
        <route edges="0.0.00"/>
    </vehicle>
    <vehicle id="147" depart="24.50" departLane="best" departPos="free" departSpeed="0.00">
        <route edges="-0.0.00"/>
    </vehicle>
    <vehicle id="148" depart="24.67" departLane="best" departPos="free" departSpeed="0.00">
        <route edges="0.0.00 -0.0.00"/>
    </vehicle>
    <vehicle id="149" depart="24.83" departLane="best" departPos="free" departSpeed="0.00">
        <route edges="-0.0.00 0.0.00"/>
    </vehicle>
    <vehicle id="150" depart="25.00" departLane="best" departPos="free" departSpeed="0.00">
        <route edges="0.0.00"/>
    </vehicle>
    <vehicle id="151" depart="25.17" departLane="best" departPos="free" departSpeed="0.00">
        <route edges="0.0.00 -0.0.00"/>
    </vehicle>
    <vehicle id="152" depart="25.33" departLane="best" departPos="free" departSpeed="0.00">
        <route edges="0.0.00"/>
    </vehicle>
    <vehicle id="153" depart="25.50" departLane="best" departPos="free" departSpeed="0.00">
        <route edges="-0.0.00"/>
    </vehicle>
    <vehicle id="154" depart="25.67" departLane="best" departPos="free" departSpeed="0.00">
        <route edges="0.0.00 -0.0.00"/>
    </vehicle>
    <vehicle id="155" depart="25.83" departLane="best" departPos="free" departSpeed="0.00">
        <route edges="-0.0.00"/>
    </vehicle>
    <vehicle id="156" depart="26.00" departLane="best" departPos="free" departSpeed="0.00">
        <route edges="0.0.00 -0.0.00"/>
    </vehicle>
    <vehicle id="157" depart="26.17" departLane="best" departPos="free" departSpeed="0.00">
        <route edges="-0.0.00 0.0.00"/>
    </vehicle>
    <vehicle id="158" depart="26.33" departLane="best" departPos="free" departSpeed="0.00">
        <route edges="0.0.00 -0.0.00"/>
    </vehicle>
    <vehicle id="159" depart="26.50" departLane="best" departPos="free" departSpeed="0.00">
        <route edges="-0.0.00 0.0.00"/>
    </vehicle>
    <vehicle id="160" depart="26.67" departLane="best" departPos="free" departSpeed="0.00">
        <route edges="-0.0.00 0.0.00"/>
    </vehicle>
    <vehicle id="161" depart="26.83" departLane="best" departPos="free" departSpeed="0.00">
        <route edges="-0.0.00"/>
    </vehicle>
    <vehicle id="162" depart="27.00" departLane="best" departPos="free" departSpeed="0.00">
        <route edges="-0.0.00 0.0.00"/>
    </vehicle>
    <vehicle id="163" depart="27.17" departLane="best" departPos="free" departSpeed="0.00">
        <route edges="0.0.00"/>
    </vehicle>
    <vehicle id="164" depart="27.33" departLane="best" departPos="free" departSpeed="0.00">
        <route edges="-0.0.00 0.0.00"/>
    </vehicle>
    <vehicle id="165" depart="27.50" departLane="best" departPos="free" departSpeed="0.00">
        <route edges="-0.0.00"/>
    </vehicle>
    <vehicle id="166" depart="27.67" departLane="best" departPos="free" departSpeed="0.00">
        <route edges="-0.0.00"/>
    </vehicle>
    <vehicle id="167" depart="27.83" departLane="best" departPos="free" departSpeed="0.00">
        <route edges="0.0.00 -0.0.00"/>
    </vehicle>
    <vehicle id="168" depart="28.00" departLane="best" departPos="free" departSpeed="0.00">
        <route edges="-0.0.00"/>
    </vehicle>
    <vehicle id="169" depart="28.17" departLane="best" departPos="free" departSpeed="0.00">
        <route edges="-0.0.00 0.0.00"/>
    </vehicle>
    <vehicle id="170" depart="28.33" departLane="best" departPos="free" departSpeed="0.00">
        <route edges="-0.0.00 0.0.00"/>
    </vehicle>
    <vehicle id="171" depart="28.50" departLane="best" departPos="free" departSpeed="0.00">
        <route edges="0.0.00 -0.0.00"/>
    </vehicle>
    <vehicle id="172" depart="28.67" departLane="best" departPos="free" departSpeed="0.00">
        <route edges="-0.0.00 0.0.00"/>
    </vehicle>
    <vehicle id="173" depart="28.83" departLane="best" departPos="free" departSpeed="0.00">
        <route edges="0.0.00 -0.0.00"/>
    </vehicle>
    <vehicle id="174" depart="29.00" departLane="best" departPos="free" departSpeed="0.00">
        <route edges="0.0.00 -0.0.00"/>
    </vehicle>
    <vehicle id="175" depart="29.17" departLane="best" departPos="free" departSpeed="0.00">
        <route edges="-0.0.00"/>
    </vehicle>
    <vehicle id="176" depart="29.33" departLane="best" departPos="free" departSpeed="0.00">
        <route edges="0.0.00 -0.0.00"/>
    </vehicle>
    <vehicle id="177" depart="29.50" departLane="best" departPos="free" departSpeed="0.00">
        <route edges="0.0.00 -0.0.00"/>
    </vehicle>
    <vehicle id="178" depart="29.67" departLane="best" departPos="free" departSpeed="0.00">
        <route edges="-0.0.00 0.0.00"/>
    </vehicle>
    <vehicle id="179" depart="29.83" departLane="best" departPos="free" departSpeed="0.00">
        <route edges="0.0.00"/>
    </vehicle>
    <vehicle id="180" depart="30.00" departLane="best" departPos="free" departSpeed="0.00">
        <route edges="-0.0.00"/>
    </vehicle>
    <vehicle id="181" depart="30.17" departLane="best" departPos="free" departSpeed="0.00">
        <route edges="-0.0.00 0.0.00"/>
    </vehicle>
    <vehicle id="182" depart="30.33" departLane="best" departPos="free" departSpeed="0.00">
        <route edges="0.0.00"/>
    </vehicle>
    <vehicle id="183" depart="30.50" departLane="best" departPos="free" departSpeed="0.00">
        <route edges="0.0.00"/>
    </vehicle>
    <vehicle id="184" depart="30.67" departLane="best" departPos="free" departSpeed="0.00">
        <route edges="-0.0.00"/>
    </vehicle>
    <vehicle id="185" depart="30.83" departLane="best" departPos="free" departSpeed="0.00">
        <route edges="0.0.00 -0.0.00"/>
    </vehicle>
    <vehicle id="186" depart="31.00" departLane="best" departPos="free" departSpeed="0.00">
        <route edges="-0.0.00"/>
    </vehicle>
    <vehicle id="187" depart="31.17" departLane="best" departPos="free" departSpeed="0.00">
        <route edges="-0.0.00 0.0.00"/>
    </vehicle>
    <vehicle id="188" depart="31.33" departLane="best" departPos="free" departSpeed="0.00">
        <route edges="-0.0.00"/>
    </vehicle>
    <vehicle id="189" depart="31.50" departLane="best" departPos="free" departSpeed="0.00">
        <route edges="-0.0.00 0.0.00"/>
    </vehicle>
    <vehicle id="190" depart="31.67" departLane="best" departPos="free" departSpeed="0.00">
        <route edges="0.0.00"/>
    </vehicle>
    <vehicle id="191" depart="31.83" departLane="best" departPos="free" departSpeed="0.00">
        <route edges="0.0.00"/>
    </vehicle>
    <vehicle id="192" depart="32.00" departLane="best" departPos="free" departSpeed="0.00">
        <route edges="0.0.00"/>
    </vehicle>
    <vehicle id="193" depart="32.17" departLane="best" departPos="free" departSpeed="0.00">
        <route edges="0.0.00"/>
    </vehicle>
    <vehicle id="194" depart="32.33" departLane="best" departPos="free" departSpeed="0.00">
        <route edges="0.0.00"/>
    </vehicle>
    <vehicle id="195" depart="32.50" departLane="best" departPos="free" departSpeed="0.00">
        <route edges="0.0.00 -0.0.00"/>
    </vehicle>
    <vehicle id="196" depart="32.67" departLane="best" departPos="free" departSpeed="0.00">
        <route edges="0.0.00"/>
    </vehicle>
    <vehicle id="197" depart="32.83" departLane="best" departPos="free" departSpeed="0.00">
        <route edges="0.0.00 -0.0.00"/>
    </vehicle>
    <vehicle id="198" depart="33.00" departLane="best" departPos="free" departSpeed="0.00">
        <route edges="0.0.00 -0.0.00"/>
    </vehicle>
    <vehicle id="199" depart="33.17" departLane="best" departPos="free" departSpeed="0.00">
        <route edges="0.0.00"/>
    </vehicle>
    <vehicle id="200" depart="33.33" departLane="best" departPos="free" departSpeed="0.00">
        <route edges="0.0.00"/>
    </vehicle>
    <vehicle id="201" depart="33.50" departLane="best" departPos="free" departSpeed="0.00">
        <route edges="-0.0.00"/>
    </vehicle>
    <vehicle id="202" depart="33.67" departLane="best" departPos="free" departSpeed="0.00">
        <route edges="0.0.00 -0.0.00"/>
    </vehicle>
    <vehicle id="203" depart="33.83" departLane="best" departPos="free" departSpeed="0.00">
        <route edges="-0.0.00 0.0.00"/>
    </vehicle>