<?xml version="1.0" encoding="UTF-8"?>

<!-- generated on Thu Aug  5 13:35:38 2021 by Eclipse SUMO duarouter Version 1.7.0
<configuration xmlns:xsi="http://www.w3.org/2001/XMLSchema-instance" xsi:noNamespaceSchemaLocation="http://sumo.dlr.de/xsd/duarouterConfiguration.xsd">

    <input>
        <net-file value="./3lane/map.net.xml"/>
        <route-files value="./3lane/map_p_7.trip.xml"/>
    </input>

    <output>
        <output-file value="./3lane/map_p_7.rou.xml"/>
        <alternatives-output value="./3lane/map_p_7.rou.alt.xml"/>
    </output>

    <time>
        <begin value="0"/>
        <end value="3600"/>
    </time>

    <report>
        <no-warnings value="true"/>
        <ignore-errors value="true"/>
        <no-step-log value="true"/>
    </report>

</configuration>
-->

<routes xmlns:xsi="http://www.w3.org/2001/XMLSchema-instance" xsi:noNamespaceSchemaLocation="http://sumo.dlr.de/xsd/routes_file.xsd">
    <vehicle id="0" depart="0.00" departLane="best" departPos="free" departSpeed="0.00">
        <route edges="0.0.00"/>
    </vehicle>
    <vehicle id="1" depart="0.14" departLane="best" departPos="free" departSpeed="0.00">
        <route edges="-0.0.00"/>
    </vehicle>
    <vehicle id="2" depart="0.29" departLane="best" departPos="free" departSpeed="0.00">
        <route edges="0.0.00 -0.0.00"/>
    </vehicle>
    <vehicle id="3" depart="0.43" departLane="best" departPos="free" departSpeed="0.00">
        <route edges="0.0.00 -0.0.00"/>
    </vehicle>
    <vehicle id="4" depart="0.57" departLane="best" departPos="free" departSpeed="0.00">
        <route edges="-0.0.00 0.0.00"/>
    </vehicle>
    <vehicle id="5" depart="0.71" departLane="best" departPos="free" departSpeed="0.00">
        <route edges="0.0.00"/>
    </vehicle>
    <vehicle id="6" depart="0.86" departLane="best" departPos="free" departSpeed="0.00">
        <route edges="-0.0.00 0.0.00"/>
    </vehicle>
    <vehicle id="7" depart="1.00" departLane="best" departPos="free" departSpeed="0.00">
        <route edges="0.0.00 -0.0.00"/>
    </vehicle>
    <vehicle id="8" depart="1.14" departLane="best" departPos="free" departSpeed="0.00">
        <route edges="0.0.00"/>
    </vehicle>
    <vehicle id="9" depart="1.29" departLane="best" departPos="free" departSpeed="0.00">
        <route edges="0.0.00"/>
    </vehicle>
    <vehicle id="10" depart="1.43" departLane="best" departPos="free" departSpeed="0.00">
        <route edges="-0.0.00 0.0.00"/>
    </vehicle>
    <vehicle id="11" depart="1.57" departLane="best" departPos="free" departSpeed="0.00">
        <route edges="0.0.00"/>
    </vehicle>
    <vehicle id="12" depart="1.71" departLane="best" departPos="free" departSpeed="0.00">
        <route edges="-0.0.00"/>
    </vehicle>
    <vehicle id="13" depart="1.86" departLane="best" departPos="free" departSpeed="0.00">
        <route edges="-0.0.00 0.0.00"/>
    </vehicle>
    <vehicle id="14" depart="2.00" departLane="best" departPos="free" departSpeed="0.00">
        <route edges="0.0.00"/>
    </vehicle>
    <vehicle id="15" depart="2.14" departLane="best" departPos="free" departSpeed="0.00">
        <route edges="-0.0.00 0.0.00"/>
    </vehicle>
    <vehicle id="16" depart="2.29" departLane="best" departPos="free" departSpeed="0.00">
        <route edges="-0.0.00 0.0.00"/>
    </vehicle>
    <vehicle id="17" depart="2.43" departLane="best" departPos="free" departSpeed="0.00">
        <route edges="0.0.00 -0.0.00"/>
    </vehicle>
    <vehicle id="18" depart="2.57" departLane="best" departPos="free" departSpeed="0.00">
        <route edges="0.0.00 -0.0.00"/>
    </vehicle>
    <vehicle id="19" depart="2.71" departLane="best" departPos="free" departSpeed="0.00">
        <route edges="0.0.00"/>
    </vehicle>
    <vehicle id="20" depart="2.86" departLane="best" departPos="free" departSpeed="0.00">
        <route edges="-0.0.00"/>
    </vehicle>
    <vehicle id="21" depart="3.00" departLane="best" departPos="free" departSpeed="0.00">
        <route edges="0.0.00 -0.0.00"/>
    </vehicle>
    <vehicle id="22" depart="3.14" departLane="best" departPos="free" departSpeed="0.00">
        <route edges="-0.0.00 0.0.00"/>
    </vehicle>
    <vehicle id="23" depart="3.29" departLane="best" departPos="free" departSpeed="0.00">
        <route edges="-0.0.00 0.0.00"/>
    </vehicle>
    <vehicle id="24" depart="3.43" departLane="best" departPos="free" departSpeed="0.00">
        <route edges="-0.0.00 0.0.00"/>
    </vehicle>
    <vehicle id="25" depart="3.57" departLane="best" departPos="free" departSpeed="0.00">
        <route edges="0.0.00 -0.0.00"/>
    </vehicle>
    <vehicle id="26" depart="3.71" departLane="best" departPos="free" departSpeed="0.00">
        <route edges="-0.0.00"/>
    </vehicle>
    <vehicle id="27" depart="3.86" departLane="best" departPos="free" departSpeed="0.00">
        <route edges="0.0.00"/>
    </vehicle>
    <vehicle id="28" depart="4.00" departLane="best" departPos="free" departSpeed="0.00">
        <route edges="-0.0.00 0.0.00"/>
    </vehicle>
    <vehicle id="29" depart="4.14" departLane="best" departPos="free" departSpeed="0.00">
        <route edges="0.0.00"/>
    </vehicle>
    <vehicle id="30" depart="4.29" departLane="best" departPos="free" departSpeed="0.00">
        <route edges="0.0.00"/>
    </vehicle>
    <vehicle id="31" depart="4.43" departLane="best" departPos="free" departSpeed="0.00">
        <route edges="0.0.00"/>
    </vehicle>
    <vehicle id="32" depart="4.57" departLane="best" departPos="free" departSpeed="0.00">
        <route edges="0.0.00 -0.0.00"/>
    </vehicle>
    <vehicle id="33" depart="4.71" departLane="best" departPos="free" departSpeed="0.00">
        <route edges="0.0.00 -0.0.00"/>
    </vehicle>
    <vehicle id="34" depart="4.86" departLane="best" departPos="free" departSpeed="0.00">
        <route edges="0.0.00 -0.0.00"/>
    </vehicle>
    <vehicle id="35" depart="5.00" departLane="best" departPos="free" departSpeed="0.00">
        <route edges="-0.0.00"/>
    </vehicle>
    <vehicle id="36" depart="5.14" departLane="best" departPos="free" departSpeed="0.00">
        <route edges="0.0.00"/>
    </vehicle>
    <vehicle id="37" depart="5.29" departLane="best" departPos="free" departSpeed="0.00">
        <route edges="-0.0.00"/>
    </vehicle>
    <vehicle id="38" depart="5.43" departLane="best" departPos="free" departSpeed="0.00">
        <route edges="0.0.00"/>
    </vehicle>
    <vehicle id="39" depart="5.57" departLane="best" departPos="free" departSpeed="0.00">
        <route edges="0.0.00"/>
    </vehicle>
    <vehicle id="40" depart="5.71" departLane="best" departPos="free" departSpeed="0.00">
        <route edges="0.0.00"/>
    </vehicle>
    <vehicle id="41" depart="5.86" departLane="best" departPos="free" departSpeed="0.00">
        <route edges="0.0.00 -0.0.00"/>
    </vehicle>
    <vehicle id="42" depart="6.00" departLane="best" departPos="free" departSpeed="0.00">
        <route edges="0.0.00 -0.0.00"/>
    </vehicle>
    <vehicle id="43" depart="6.14" departLane="best" departPos="free" departSpeed="0.00">
        <route edges="0.0.00"/>
    </vehicle>
    <vehicle id="44" depart="6.29" departLane="best" departPos="free" departSpeed="0.00">
        <route edges="0.0.00"/>
    </vehicle>
    <vehicle id="45" depart="6.43" departLane="best" departPos="free" departSpeed="0.00">
        <route edges="0.0.00"/>
    </vehicle>
    <vehicle id="46" depart="6.57" departLane="best" departPos="free" departSpeed="0.00">
        <route edges="-0.0.00 0.0.00"/>
    </vehicle>
    <vehicle id="47" depart="6.71" departLane="best" departPos="free" departSpeed="0.00">
        <route edges="0.0.00"/>
    </vehicle>
    <vehicle id="48" depart="6.86" departLane="best" departPos="free" departSpeed="0.00">
        <route edges="0.0.00 -0.0.00"/>
    </vehicle>
    <vehicle id="49" depart="7.00" departLane="best" departPos="free" departSpeed="0.00">
        <route edges="0.0.00 -0.0.00"/>
    </vehicle>
    <vehicle id="50" depart="7.14" departLane="best" departPos="free" departSpeed="0.00">
        <route edges="0.0.00"/>
    </vehicle>
    <vehicle id="51" depart="7.29" departLane="best" departPos="free" departSpeed="0.00">
        <route edges="-0.0.00 0.0.00"/>
    </vehicle>
    <vehicle id="52" depart="7.43" departLane="best" departPos="free" departSpeed="0.00">
        <route edges="-0.0.00"/>
    </vehicle>
    <vehicle id="53" depart="7.57" departLane="best" departPos="free" departSpeed="0.00">
        <route edges="0.0.00 -0.0.00"/>
    </vehicle>
    <vehicle id="54" depart="7.71" departLane="best" departPos="free" departSpeed="0.00">
        <route edges="0.0.00 -0.0.00"/>
    </vehicle>
    <vehicle id="55" depart="7.86" departLane="best" departPos="free" departSpeed="0.00">
        <route edges="-0.0.00 0.0.00"/>
    </vehicle>
    <vehicle id="56" depart="8.00" departLane="best" departPos="free" departSpeed="0.00">
        <route edges="-0.0.00 0.0.00"/>
    </vehicle>
    <vehicle id="57" depart="8.14" departLane="best" departPos="free" departSpeed="0.00">
        <route edges="0.0.00"/>
    </vehicle>
    <vehicle id="58" depart="8.29" departLane="best" departPos="free" departSpeed="0.00">
        <route edges="0.0.00 -0.0.00"/>
    </vehicle>
    <vehicle id="59" depart="8.43" departLane="best" departPos="free" departSpeed="0.00">
        <route edges="0.0.00"/>
    </vehicle>
    <vehicle id="60" depart="8.57" departLane="best" departPos="free" departSpeed="0.00">
        <route edges="0.0.00 -0.0.00"/>
    </vehicle>
    <vehicle id="61" depart="8.71" departLane="best" departPos="free" departSpeed="0.00">
        <route edges="-0.0.00 0.0.00"/>
    </vehicle>
    <vehicle id="62" depart="8.86" departLane="best" departPos="free" departSpeed="0.00">
        <route edges="-0.0.00"/>
    </vehicle>
    <vehicle id="63" depart="9.00" departLane="best" departPos="free" departSpeed="0.00">
        <route edges="0.0.00 -0.0.00"/>
    </vehicle>
    <vehicle id="64" depart="9.14" departLane="best" departPos="free" departSpeed="0.00">
        <route edges="-0.0.00"/>
    </vehicle>
    <vehicle id="65" depart="9.29" departLane="best" departPos="free" departSpeed="0.00">
        <route edges="0.0.00"/>
    </vehicle>
    <vehicle id="66" depart="9.43" departLane="best" departPos="free" departSpeed="0.00">
        <route edges="-0.0.00"/>
    </vehicle>
    <vehicle id="67" depart="9.57" departLane="best" departPos="free" departSpeed="0.00">
        <route edges="-0.0.00"/>
    </vehicle>
    <vehicle id="68" depart="9.71" departLane="best" departPos="free" departSpeed="0.00">
        <route edges="-0.0.00 0.0.00"/>
    </vehicle>
    <vehicle id="69" depart="9.86" departLane="best" departPos="free" departSpeed="0.00">
        <route edges="-0.0.00"/>
    </vehicle>
    <vehicle id="70" depart="10.00" departLane="best" departPos="free" departSpeed="0.00">
        <route edges="0.0.00 -0.0.00"/>
    </vehicle>
    <vehicle id="71" depart="10.14" departLane="best" departPos="free" departSpeed="0.00">
        <route edges="-0.0.00 0.0.00"/>
    </vehicle>
    <vehicle id="72" depart="10.29" departLane="best" departPos="free" departSpeed="0.00">
        <route edges="-0.0.00"/>
    </vehicle>
    <vehicle id="73" depart="10.43" departLane="best" departPos="free" departSpeed="0.00">
        <route edges="0.0.00"/>
    </vehicle>
    <vehicle id="74" depart="10.57" departLane="best" departPos="free" departSpeed="0.00">
        <route edges="0.0.00 -0.0.00"/>
    </vehicle>
    <vehicle id="75" depart="10.71" departLane="best" departPos="free" departSpeed="0.00">
        <route edges="0.0.00"/>
    </vehicle>
    <vehicle id="76" depart="10.86" departLane="best" departPos="free" departSpeed="0.00">
        <route edges="-0.0.00 0.0.00"/>
    </vehicle>
    <vehicle id="77" depart="11.00" departLane="best" departPos="free" departSpeed="0.00">
        <route edges="0.0.00 -0.0.00"/>
    </vehicle>
    <vehicle id="78" depart="11.14" departLane="best" departPos="free" departSpeed="0.00">
        <route edges="-0.0.00 0.0.00"/>
    </vehicle>
    <vehicle id="79" depart="11.29" departLane="best" departPos="free" departSpeed="0.00">
        <route edges="-0.0.00"/>
    </vehicle>
    <vehicle id="80" depart="11.43" departLane="best" departPos="free" departSpeed="0.00">
        <route edges="-0.0.00"/>
    </vehicle>
    <vehicle id="81" depart="11.57" departLane="best" departPos="free" departSpeed="0.00">
        <route edges="0.0.00"/>
    </vehicle>
    <vehicle id="82" depart="11.71" departLane="best" departPos="free" departSpeed="0.00">
        <route edges="-0.0.00"/>
    </vehicle>
    <vehicle id="83" depart="11.86" departLane="best" departPos="free" departSpeed="0.00">
        <route edges="0.0.00 -0.0.00"/>
    </vehicle>
    <vehicle id="84" depart="12.00" departLane="best" departPos="free" departSpeed="0.00">
        <route edges="0.0.00 -0.0.00"/>
    </vehicle>
    <vehicle id="85" depart="12.14" departLane="best" departPos="free" departSpeed="0.00">
        <route edges="0.0.00 -0.0.00"/>
    </vehicle>
    <vehicle id="86" depart="12.29" departLane="best" departPos="free" departSpeed="0.00">
        <route edges="-0.0.00"/>
    </vehicle>
    <vehicle id="87" depart="12.43" departLane="best" departPos="free" departSpeed="0.00">
        <route edges="-0.0.00 0.0.00"/>
    </vehicle>
    <vehicle id="88" depart="12.57" departLane="best" departPos="free" departSpeed="0.00">
        <route edges="-0.0.00"/>
    </vehicle>
    <vehicle id="89" depart="12.71" departLane="best" departPos="free" departSpeed="0.00">
        <route edges="-0.0.00 0.0.00"/>
    </vehicle>
    <vehicle id="90" depart="12.86" departLane="best" departPos="free" departSpeed="0.00">
        <route edges="0.0.00"/>
    </vehicle>
    <vehicle id="91" depart="13.00" departLane="best" departPos="free" departSpeed="0.00">
        <route edges="0.0.00 -0.0.00"/>
    </vehicle>
    <vehicle id="92" depart="13.14" departLane="best" departPos="free" departSpeed="0.00">
        <route edges="-0.0.00 0.0.00"/>
    </vehicle>
    <vehicle id="93" depart="13.29" departLane="best" departPos="free" departSpeed="0.00">
        <route edges="-0.0.00"/>
    </vehicle>
    <vehicle id="94" depart="13.43" departLane="best" departPos="free" departSpeed="0.00">
        <route edges="-0.0.00"/>
    </vehicle>
    <vehicle id="95" depart="13.57" departLane="best" departPos="free" departSpeed="0.00">
        <route edges="0.0.00 -0.0.00"/>
    </vehicle>
    <vehicle id="96" depart="13.71" departLane="best" departPos="free" departSpeed="0.00">
        <route edges="0.0.00"/>
    </vehicle>
    <vehicle id="97" depart="13.86" departLane="best" departPos="free" departSpeed="0.00">
        <route edges="-0.0.00"/>
    </vehicle>
    <vehicle id="98" depart="14.00" departLane="best" departPos="free" departSpeed="0.00">
        <route edges="0.0.00 -0.0.00"/>
    </vehicle>
    <vehicle id="99" depart="14.14" departLane="best" departPos="free" departSpeed="0.00">
        <route edges="0.0.00 -0.0.00"/>
    </vehicle>
    <vehicle id="100" depart="14.29" departLane="best" departPos="free" departSpeed="0.00">
        <route edges="-0.0.00"/>
    </vehicle>
    <vehicle id="101" depart="14.43" departLane="best" departPos="free" departSpeed="0.00">
        <route edges="-0.0.00 0.0.00"/>
    </vehicle>
    <vehicle id="102" depart="14.57" departLane="best" departPos="free" departSpeed="0.00">
        <route edges="-0.0.00 0.0.00"/>
    </vehicle>
    <vehicle id="103" depart="14.71" departLane="best" departPos="free" departSpeed="0.00">
        <route edges="0.0.00"/>
    </vehicle>
    <vehicle id="104" depart="14.86" departLane="best" departPos="free" departSpeed="0.00">
        <route edges="-0.0.00"/>
    </vehicle>
    <vehicle id="105" depart="15.00" departLane="best" departPos="free" departSpeed="0.00">
        <route edges="-0.0.00 0.0.00"/>
    </vehicle>
    <vehicle id="106" depart="15.14" departLane="best" departPos="free" departSpeed="0.00">
        <route edges="0.0.00"/>
    </vehicle>
    <vehicle id="107" depart="15.29" departLane="best" departPos="free" departSpeed="0.00">
        <route edges="-0.0.00 0.0.00"/>
    </vehicle>
    <vehicle id="108" depart="15.43" departLane="best" departPos="free" departSpeed="0.00">
        <route edges="0.0.00 -0.0.00"/>
    </vehicle>
    <vehicle id="109" depart="15.57" departLane="best" departPos="free" departSpeed="0.00">
        <route edges="0.0.00"/>
    </vehicle>
    <vehicle id="110" depart="15.71" departLane="best" departPos="free" departSpeed="0.00">
        <route edges="-0.0.00 0.0.00"/>
    </vehicle>
    <vehicle id="111" depart="15.86" departLane="best" departPos="free" departSpeed="0.00">
        <route edges="-0.0.00"/>
    </vehicle>
    <vehicle id="112" depart="16.00" departLane="best" departPos="free" departSpeed="0.00">
        <route edges="0.0.00 -0.0.00"/>
    </vehicle>
    <vehicle id="113" depart="16.14" departLane="best" departPos="free" departSpeed="0.00">
        <route edges="0.0.00"/>
    </vehicle>
    <vehicle id="114" depart="16.29" departLane="best" departPos="free" departSpeed="0.00">
        <route edges="-0.0.00"/>
    </vehicle>
    <vehicle id="115" depart="16.43" departLane="best" departPos="free" departSpeed="0.00">
        <route edges="0.0.00"/>
    </vehicle>
    <vehicle id="116" depart="16.57" departLane="best" departPos="free" departSpeed="0.00">
        <route edges="-0.0.00 0.0.00"/>
    </vehicle>
    <vehicle id="117" depart="16.71" departLane="best" departPos="free" departSpeed="0.00">
        <route edges="-0.0.00 0.0.00"/>
    </vehicle>
    <vehicle id="118" depart="16.86" departLane="best" departPos="free" departSpeed="0.00">
        <route edges="-0.0.00"/>
    </vehicle>
    <vehicle id="119" depart="17.00" departLane="best" departPos="free" departSpeed="0.00">
        <route edges="-0.0.00"/>
    </vehicle>
    <vehicle id="120" depart="17.14" departLane="best" departPos="free" departSpeed="0.00">
        <route edges="0.0.00"/>
    </vehicle>
    <vehicle id="121" depart="17.29" departLane="best" departPos="free" departSpeed="0.00">
        <route edges="-0.0.00 0.0.00"/>
    </vehicle>
    <vehicle id="122" depart="17.43" departLane="best" departPos="free" departSpeed="0.00">
        <route edges="0.0.00 -0.0.00"/>
    </vehicle>
    <vehicle id="123" depart="17.57" departLane="best" departPos="free" departSpeed="0.00">
        <route edges="0.0.00 -0.0.00"/>
    </vehicle>
    <vehicle id="124" depart="17.71" departLane="best" departPos="free" departSpeed="0.00">
        <route edges="-0.0.00"/>
    </vehicle>
    <vehicle id="125" depart="17.86" departLane="best" departPos="free" departSpeed="0.00">
        <route edges="0.0.00"/>
    </vehicle>
    <vehicle id="126" depart="18.00" departLane="best" departPos="free" departSpeed="0.00">
        <route edges="0.0.00"/>
    </vehicle>
    <vehicle id="127" depart="18.14" departLane="best" departPos="free" departSpeed="0.00">
        <route edges="0.0.00 -0.0.00"/>
    </vehicle>
    <vehicle id="128" depart="18.29" departLane="best" departPos="free" departSpeed="0.00">
        <route edges="0.0.00"/>
    </vehicle>
    <vehicle id="129" depart="18.43" departLane="best" departPos="free" departSpeed="0.00">
        <route edges="0.0.00"/>
    </vehicle>
    <vehicle id="130" depart="18.57" departLane="best" departPos="free" departSpeed="0.00">
        <route edges="0.0.00"/>
    </vehicle>
    <vehicle id="131" depart="18.71" departLane="best" departPos="free" departSpeed="0.00">
        <route edges="-0.0.00 0.0.00"/>
    </vehicle>
    <vehicle id="132" depart="18.86" departLane="best" departPos="free" departSpeed="0.00">
        <route edges="-0.0.00 0.0.00"/>
    </vehicle>
    <vehicle id="133" depart="19.00" departLane="best" departPos="free" departSpeed="0.00">
        <route edges="-0.0.00"/>
    </vehicle>
    <vehicle id="134" depart="19.14" departLane="best" departPos="free" departSpeed="0.00">
        <route edges="-0.0.00 0.0.00"/>
    </vehicle>
    <vehicle id="135" depart="19.29" departLane="best" departPos="free" departSpeed="0.00">
        <route edges="0.0.00 -0.0.00"/>
    </vehicle>
    <vehicle id="136" depart="19.43" departLane="best" departPos="free" departSpeed="0.00">
        <route edges="0.0.00 -0.0.00"/>
    </vehicle>
    <vehicle id="137" depart="19.57" departLane="best" departPos="free" departSpeed="0.00">
        <route edges="-0.0.00 0.0.00"/>
    </vehicle>
    <vehicle id="138" depart="19.71" departLane="best" departPos="free" departSpeed="0.00">
        <route edges="-0.0.00"/>
    </vehicle>
    <vehicle id="139" depart="19.86" departLane="best" departPos="free" departSpeed="0.00">
        <route edges="0.0.00 -0.0.00"/>
    </vehicle>
    <vehicle id="140" depart="20.00" departLane="best" departPos="free" departSpeed="0.00">
        <route edges="-0.0.00"/>
    </vehicle>
    <vehicle id="141" depart="20.14" departLane="best" departPos="free" departSpeed="0.00">
        <route edges="-0.0.00"/>
    </vehicle>
    <vehicle id="142" depart="20.29" departLane="best" departPos="free" departSpeed="0.00">
        <route edges="0.0.00 -0.0.00"/>
    </vehicle>
    <vehicle id="143" depart="20.43" departLane="best" departPos="free" departSpeed="0.00">
        <route edges="-0.0.00"/>
    </vehicle>
    <vehicle id="144" depart="20.57" departLane="best" departPos="free" departSpeed="0.00">
        <route edges="-0.0.00"/>
    </vehicle>
    <vehicle id="145" depart="20.71" departLane="best" departPos="free" departSpeed="0.00">
        <route edges="0.0.00 -0.0.00"/>
    </vehicle>
    <vehicle id="146" depart="20.86" departLane="best" departPos="free" departSpeed="0.00">
        <route edges="0.0.00"/>
    </vehicle>
    <vehicle id="147" depart="21.00" departLane="best" departPos="free" departSpeed="0.00">
        <route edges="-0.0.00"/>
    </vehicle>
    <vehicle id="148" depart="21.14" departLane="best" departPos="free" departSpeed="0.00">
        <route edges="0.0.00 -0.0.00"/>
    </vehicle>
    <vehicle id="149" depart="21.29" departLane="best" departPos="free" departSpeed="0.00">
        <route edges="-0.0.00 0.0.00"/>
    </vehicle>
    <vehicle id="150" depart="21.43" departLane="best" departPos="free" departSpeed="0.00">
        <route edges="0.0.00"/>
    </vehicle>
    <vehicle id="151" depart="21.57" departLane="best" departPos="free" departSpeed="0.00">
        <route edges="0.0.00 -0.0.00"/>
    </vehicle>
    <vehicle id="152" depart="21.71" departLane="best" departPos="free" departSpeed="0.00">
        <route edges="0.0.00"/>
    </vehicle>
    <vehicle id="153" depart="21.86" departLane="best" departPos="free" departSpeed="0.00">
        <route edges="-0.0.00"/>
    </vehicle>
    <vehicle id="154" depart="22.00" departLane="best" departPos="free" departSpeed="0.00">
        <route edges="0.0.00 -0.0.00"/>
    </vehicle>
    <vehicle id="155" depart="22.14" departLane="best" departPos="free" departSpeed="0.00">
        <route edges="-0.0.00"/>
    </vehicle>
    <vehicle id="156" depart="22.29" departLane="best" departPos="free" departSpeed="0.00">
        <route edges="0.0.00 -0.0.00"/>
    </vehicle>
    <vehicle id="157" depart="22.43" departLane="best" departPos="free" departSpeed="0.00">
        <route edges="-0.0.00 0.0.00"/>
    </vehicle>
    <vehicle id="158" depart="22.57" departLane="best" departPos="free" departSpeed="0.00">
        <route edges="0.0.00 -0.0.00"/>
    </vehicle>
    <vehicle id="159" depart="22.71" departLane="best" departPos="free" departSpeed="0.00">
        <route edges="-0.0.00 0.0.00"/>
    </vehicle>
    <vehicle id="160" depart="22.86" departLane="best" departPos="free" departSpeed="0.00">
        <route edges="-0.0.00 0.0.00"/>
    </vehicle>
    <vehicle id="161" depart="23.00" departLane="best" departPos="free" departSpeed="0.00">
        <route edges="-0.0.00"/>
    </vehicle>
    <vehicle id="162" depart="23.14" departLane="best" departPos="free" departSpeed="0.00">
        <route edges="-0.0.00 0.0.00"/>
    </vehicle>
    <vehicle id="163" depart="23.29" departLane="best" departPos="free" departSpeed="0.00">
        <route edges="0.0.00"/>
    </vehicle>
    <vehicle id="164" depart="23.43" departLane="best" departPos="free" departSpeed="0.00">
        <route edges="-0.0.00 0.0.00"/>
    </vehicle>
    <vehicle id="165" depart="23.57" departLane="best" departPos="free" departSpeed="0.00">
        <route edges="-0.0.00"/>
    </vehicle>
    <vehicle id="166" depart="23.71" departLane="best" departPos="free" departSpeed="0.00">
        <route edges="-0.0.00"/>
    </vehicle>
    <vehicle id="167" depart="23.86" departLane="best" departPos="free" departSpeed="0.00">
        <route edges="0.0.00 -0.0.00"/>
    </vehicle>
    <vehicle id="168" depart="24.00" departLane="best" departPos="free" departSpeed="0.00">
        <route edges="-0.0.00"/>
    </vehicle>
    <vehicle id="169" depart="24.14" departLane="best" departPos="free" departSpeed="0.00">
        <route edges="-0.0.00 0.0.00"/>
    </vehicle>
    <vehicle id="170" depart="24.29" departLane="best" departPos="free" departSpeed="0.00">
        <route edges="-0.0.00 0.0.00"/>
    </vehicle>
    <vehicle id="171" depart="24.43" departLane="best" departPos="free" departSpeed="0.00">
        <route edges="0.0.00 -0.0.00"/>
    </vehicle>
    <vehicle id="172" depart="24.57" departLane="best" departPos="free" departSpeed="0.00">
        <route edges="-0.0.00 0.0.00"/>
    </vehicle>
    <vehicle id="173" depart="24.71" departLane="best" departPos="free" departSpeed="0.00">
        <route edges="0.0.00 -0.0.00"/>
    </vehicle>
    <vehicle id="174" depart="24.86" departLane="best" departPos="free" departSpeed="0.00">
        <route edges="0.0.00 -0.0.00"/>
    </vehicle>
    <vehicle id="175" depart="25.00" departLane="best" departPos="free" departSpeed="0.00">
        <route edges="-0.0.00"/>
    </vehicle>
    <vehicle id="176" depart="25.14" departLane="best" departPos="free" departSpeed="0.00">
        <route edges="0.0.00 -0.0.00"/>
    </vehicle>
    <vehicle id="177" depart="25.29" departLane="best" departPos="free" departSpeed="0.00">
        <route edges="0.0.00 -0.0.00"/>
    </vehicle>
    <vehicle id="178" depart="25.43" departLane="best" departPos="free" departSpeed="0.00">
        <route edges="-0.0.00 0.0.00"/>
    </vehicle>
    <vehicle id="179" depart="25.57" departLane="best" departPos="free" departSpeed="0.00">
        <route edges="0.0.00"/>
    </vehicle>
    <vehicle id="180" depart="25.71" departLane="best" departPos="free" departSpeed="0.00">
        <route edges="-0.0.00"/>
    </vehicle>
    <vehicle id="181" depart="25.86" departLane="best" departPos="free" departSpeed="0.00">
        <route edges="-0.0.00 0.0.00"/>
    </vehicle>
    <vehicle id="182" depart="26.00" departLane="best" departPos="free" departSpeed="0.00">
        <route edges="0.0.00"/>
    </vehicle>
    <vehicle id="183" depart="26.14" departLane="best" departPos="free" departSpeed="0.00">
        <route edges="0.0.00"/>
    </vehicle>
    <vehicle id="184" depart="26.29" departLane="best" departPos="free" departSpeed="0.00">
        <route edges="-0.0.00"/>
    </vehicle>
    <vehicle id="185" depart="26.43" departLane="best" departPos="free" departSpeed="0.00">
        <route edges="0.0.00 -0.0.00"/>
    </vehicle>
    <vehicle id="186" depart="26.57" departLane="best" departPos="free" departSpeed="0.00">
        <route edges="-0.0.00"/>
    </vehicle>
    <vehicle id="187" depart="26.71" departLane="best" departPos="free" departSpeed="0.00">
        <route edges="-0.0.00 0.0.00"/>
    </vehicle>
    <vehicle id="188" depart="26.86" departLane="best" departPos="free" departSpeed="0.00">
        <route edges="-0.0.00"/>
    </vehicle>
    <vehicle id="189" depart="27.00" departLane="best" departPos="free" departSpeed="0.00">
        <route edges="-0.0.00 0.0.00"/>
    </vehicle>
    <vehicle id="190" depart="27.14" departLane="best" departPos="free" departSpeed="0.00">
        <route edges="0.0.00"/>
    </vehicle>
    <vehicle id="191" depart="27.29" departLane="best" departPos="free" departSpeed="0.00">
        <route edges="0.0.00"/>
    </vehicle>
    <vehicle id="192" depart="27.43" departLane="best" departPos="free" departSpeed="0.00">
        <route edges="0.0.00"/>
    </vehicle>
    <vehicle id="193" depart="27.57" departLane="best" departPos="free" departSpeed="0.00">
        <route edges="0.0.00"/>
    </vehicle>
    <vehicle id="194" depart="27.71" departLane="best" departPos="free" departSpeed="0.00">
        <route edges="0.0.00"/>
    </vehicle>
    <vehicle id="195" depart="27.86" departLane="best" departPos="free" departSpeed="0.00">
        <route edges="0.0.00 -0.0.00"/>
    </vehicle>
    <vehicle id="196" depart="28.00" departLane="best" departPos="free" departSpeed="0.00">
        <route edges="0.0.00"/>
    </vehicle>
    <vehicle id="197" depart="28.14" departLane="best" departPos="free" departSpeed="0.00">
        <route edges="0.0.00 -0.0.00"/>
    </vehicle>
    <vehicle id="198" depart="28.29" departLane="best" departPos="free" departSpeed="0.00">
        <route edges="0.0.00 -0.0.00"/>
    </vehicle>
    <vehicle id="199" depart="28.43" departLane="best" departPos="free" departSpeed="0.00">
        <route edges="0.0.00"/>
    </vehicle>
    <vehicle id="200" depart="28.57" departLane="best" departPos="free" departSpeed="0.00">
        <route edges="0.0.00"/>
    </vehicle>
    <vehicle id="201" depart="28.71" departLane="best" departPos="free" departSpeed="0.00">
        <route edges="-0.0.00"/>
    </vehicle>
    <vehicle id="202" depart="28.86" departLane="best" departPos="free" departSpeed="0.00">
        <route edges="0.0.00 -0.0.00"/>
    </vehicle>
    <vehicle id="203" depart="29.00" departLane="best" departPos="free" departSpeed="0.00">
        <route edges="-0.0.00 0.0.00"/>
    </vehicle>