<types xmlns:xsi="http://www.w3.org/2001/XMLSchema-instance" xsi:noNamespaceSchemaLocation="http://sumo.dlr.de/xsd/types_file.xsd">
	<type id="a" priority="3" numLanes="3" speed="13.889"/>
	<type id="b" priority="2" numLanes="2" speed="11.111"/>
	<type id="c" priority="1" numLanes="1" speed="11.111" allow="bicycle"/>
	<type id="d" priority="1" numLanes="1" speed="02.901" allow="pedestrian"/>
</types>
