<routes>
    <vehicle id="bus_130_0" depart="0" departPos="0" departLane="best" arrivalPos="-1" type="bus" color="0,1,0"><route edges="121 m2 54"/>
        <stop busStop="busStop#37" duration="20"/>
        <stop busStop="busStop#38" duration="20"/>
        <stop busStop="busStop#40" duration="20"/>
    </vehicle>
    <vehicle id="bus_13_0" depart="0" departPos="0" departLane="best" arrivalPos="-1" type="bus" color="0,1,0"><route edges="55 55b 125 114"/>
        <stop busStop="busStop#35" duration="20"/>
        <stop busStop="busStop#36" duration="20"/>
    </vehicle>
    <vehicle id="bus_14_0" depart="0" departPos="0" departLane="best" arrivalPos="-1" type="bus" color="0,1,0"><route edges="78[0] 56a 56b 77bc 77cd 53cd 53[0] 78[1][1] 189[0] 189[1][0]+20000 189[1][1] 188 87[0] 20001+87[1][0] 87[1][1] m90 89[0] 20002+89[1][0] 89[1][1] 91 186 109[0] 109[1][0]+20003 109[1][1] 116 46 134 134b"/>
        <stop busStop="busStop#31" duration="20"/>
        <stop busStop="busStop#32" duration="20"/>
        <stop busStop="busStop#33" duration="20"/>
        <stop busStop="busStop#34" duration="20"/>
        <stop busStop="busStop#21" duration="20"/>
    </vehicle>
    <vehicle id="bus_810_0" depart="0" departPos="0" departLane="best" arrivalPos="-1" type="bus" color="0,1,0"><route edges="121 m2 54"/>
        <stop busStop="busStop#37" duration="20"/>
        <stop busStop="busStop#38" duration="20"/>
        <stop busStop="busStop#40" duration="20"/>
    </vehicle>
    <vehicle id="bus_81_0" depart="0" departPos="0" departLane="best" arrivalPos="-1" type="bus" color="0,1,0"><route edges="55 55b 125 114"/>
        <stop busStop="busStop#35" duration="20"/>
        <stop busStop="busStop#39" duration="20"/>
    </vehicle>
    <vehicle id="bus_860_0" depart="0" departPos="0" departLane="best" arrivalPos="-1" type="bus" color="0,1,0"><route edges="121 m2 54"/>
        <stop busStop="busStop#37" duration="20"/>
        <stop busStop="busStop#38" duration="20"/>
        <stop busStop="busStop#40" duration="20"/>
    </vehicle>
    <vehicle id="bus_910_0" depart="0" departPos="0" departLane="best" arrivalPos="-1" type="bus" color="0,1,0"><route edges="121 m2 54"/>
        <stop busStop="busStop#37" duration="20"/>
        <stop busStop="busStop#38" duration="20"/>
        <stop busStop="busStop#40" duration="20"/>
    </vehicle>
    <vehicle id="bus_91_0" depart="0" departPos="0" departLane="best" arrivalPos="-1" type="bus" color="0,1,0"><route edges="55 55b 125 114"/>
        <stop busStop="busStop#35" duration="20"/>
        <stop busStop="busStop#39" duration="20"/>
    </vehicle>
    <vehicle id="bus_86_60" depart="60" departPos="0" departLane="best" arrivalPos="-1" type="bus" color="0,1,0"><route edges="55 55b 125 114"/>
        <stop busStop="busStop#35" duration="20"/>
        <stop busStop="busStop#39" duration="20"/>
    </vehicle>
    <vehicle id="bus_140_120" depart="120" departPos="0" departLane="best" arrivalPos="-1" type="bus" color="0,1,0"><route edges="133 31 115 110 185 92 90 m91 88 187 190 77[0] 53[1][0] 53[1][1][0] 77[1][0] 77[1][1]"/>
        <stop busStop="busStop#22" duration="20"/>
        <stop busStop="busStop#9" duration="20"/>
        <stop busStop="busStop#6" duration="20"/>
        <stop busStop="busStop#3" duration="20"/>
        <stop busStop="busStop#2" duration="20"/>
    </vehicle>
    <vehicle id="bus_190_120" depart="120" departPos="0" departLane="best" arrivalPos="-1" type="bus" color="0,1,0"><route edges="121 m2 54"/>
        <stop busStop="busStop#37" duration="20"/>
        <stop busStop="busStop#38" duration="20"/>
        <stop busStop="busStop#40" duration="20"/>
    </vehicle>
    <vehicle id="bus_87_120" depart="120" departPos="0" departLane="best" arrivalPos="-1" type="bus" color="0,1,0"><route edges="55 55b 125 114"/>
        <stop busStop="busStop#35" duration="20"/>
        <stop busStop="busStop#39" duration="20"/>
    </vehicle>
    <vehicle id="bus_19_180" depart="180" departPos="0" departLane="best" arrivalPos="-1" type="bus" color="0,1,0"><route edges="55 55b 125 114"/>
        <stop busStop="busStop#35" duration="20"/>
        <stop busStop="busStop#36" duration="20"/>
    </vehicle>
    <vehicle id="bus_21_180" depart="180" departPos="0" departLane="best" arrivalPos="-1" type="bus" color="0,1,0"><route edges="78[0] 56a 56b 77bc 77cd 53cd 53[0] 78[1][1] 189[0] 189[1][0]+20000 189[1][1] 188 87[0] 20001+87[1][0] 87[1][1] m90 89[0] 20002+89[1][0] 89[1][1] 91 186 109[0] 109[1][0]+20003 109[1][1] 116 46 134 134b"/>
        <stop busStop="busStop#31" duration="20"/>
        <stop busStop="busStop#32" duration="20"/>
        <stop busStop="busStop#33" duration="20"/>
        <stop busStop="busStop#34" duration="20"/>
        <stop busStop="busStop#21" duration="20"/>
    </vehicle>
    <vehicle id="bus_14_240" depart="240" departPos="0" departLane="best" arrivalPos="-1" type="bus" color="0,1,0"><route edges="78[0] 56a 56b 77bc 77cd 53cd 53[0] 78[1][1] 189[0] 189[1][0]+20000 189[1][1] 188 87[0] 20001+87[1][0] 87[1][1] m90 89[0] 20002+89[1][0] 89[1][1] 91 186 109[0] 109[1][0]+20003 109[1][1] 116 46 134 134b"/>
        <stop busStop="busStop#31" duration="20"/>
        <stop busStop="busStop#32" duration="20"/>
        <stop busStop="busStop#33" duration="20"/>
        <stop busStop="busStop#34" duration="20"/>
        <stop busStop="busStop#21" duration="20"/>
    </vehicle>
    <vehicle id="bus_130_300" depart="300" departPos="0" departLane="best" arrivalPos="-1" type="bus" color="0,1,0"><route edges="121 m2 54"/>
        <stop busStop="busStop#37" duration="20"/>
        <stop busStop="busStop#38" duration="20"/>
        <stop busStop="busStop#40" duration="20"/>
    </vehicle>
    <vehicle id="bus_13_300" depart="300" departPos="0" departLane="best" arrivalPos="-1" type="bus" color="0,1,0"><route edges="55 55b 125 114"/>
        <stop busStop="busStop#35" duration="20"/>
        <stop busStop="busStop#36" duration="20"/>
    </vehicle>
    <vehicle id="bus_140_360" depart="360" departPos="0" departLane="best" arrivalPos="-1" type="bus" color="0,1,0"><route edges="133 31 115 110 185 92 90 m91 88 187 190 77[0] 53[1][0] 53[1][1][0] 77[1][0] 77[1][1]"/>
        <stop busStop="busStop#22" duration="20"/>
        <stop busStop="busStop#9" duration="20"/>
        <stop busStop="busStop#6" duration="20"/>
        <stop busStop="busStop#3" duration="20"/>
        <stop busStop="busStop#2" duration="20"/>
    </vehicle>
    <vehicle id="bus_190_420" depart="420" departPos="0" departLane="best" arrivalPos="-1" type="bus" color="0,1,0"><route edges="121 m2 54"/>
        <stop busStop="busStop#37" duration="20"/>
        <stop busStop="busStop#38" duration="20"/>
        <stop busStop="busStop#40" duration="20"/>
    </vehicle>
    <vehicle id="bus_14_480" depart="480" departPos="0" departLane="best" arrivalPos="-1" type="bus" color="0,1,0"><route edges="78[0] 56a 56b 77bc 77cd 53cd 53[0] 78[1][1] 189[0] 189[1][0]+20000 189[1][1] 188 87[0] 20001+87[1][0] 87[1][1] m90 89[0] 20002+89[1][0] 89[1][1] 91 186 109[0] 109[1][0]+20003 109[1][1] 116 46 134 134b"/>
        <stop busStop="busStop#31" duration="20"/>
        <stop busStop="busStop#32" duration="20"/>
        <stop busStop="busStop#33" duration="20"/>
        <stop busStop="busStop#34" duration="20"/>
        <stop busStop="busStop#21" duration="20"/>
    </vehicle>
    <vehicle id="bus_19_480" depart="480" departPos="0" departLane="best" arrivalPos="-1" type="bus" color="0,1,0"><route edges="55 55b 125 114"/>
        <stop busStop="busStop#35" duration="20"/>
        <stop busStop="busStop#36" duration="20"/>
    </vehicle>
    <vehicle id="bus_910_500" depart="500" departPos="0" departLane="best" arrivalPos="-1" type="bus" color="0,1,0"><route edges="121 m2 54"/>
        <stop busStop="busStop#37" duration="20"/>
        <stop busStop="busStop#38" duration="20"/>
        <stop busStop="busStop#40" duration="20"/>
    </vehicle>
    <vehicle id="bus_91_500" depart="500" departPos="0" departLane="best" arrivalPos="-1" type="bus" color="0,1,0"><route edges="55 55b 125 114"/>
        <stop busStop="busStop#35" duration="20"/>
        <stop busStop="busStop#39" duration="20"/>
    </vehicle>
    <vehicle id="bus_130_600" depart="600" departPos="0" departLane="best" arrivalPos="-1" type="bus" color="0,1,0"><route edges="121 m2 54"/>
        <stop busStop="busStop#37" duration="20"/>
        <stop busStop="busStop#38" duration="20"/>
        <stop busStop="busStop#40" duration="20"/>
    </vehicle>
    <vehicle id="bus_13_600" depart="600" departPos="0" departLane="best" arrivalPos="-1" type="bus" color="0,1,0"><route edges="55 55b 125 114"/>
        <stop busStop="busStop#35" duration="20"/>
        <stop busStop="busStop#36" duration="20"/>
    </vehicle>
    <vehicle id="bus_140_600" depart="600" departPos="0" departLane="best" arrivalPos="-1" type="bus" color="0,1,0"><route edges="133 31 115 110 185 92 90 m91 88 187 190 77[0] 53[1][0] 53[1][1][0] 77[1][0] 77[1][1]"/>
        <stop busStop="busStop#22" duration="20"/>
        <stop busStop="busStop#9" duration="20"/>
        <stop busStop="busStop#6" duration="20"/>
        <stop busStop="busStop#3" duration="20"/>
        <stop busStop="busStop#2" duration="20"/>
    </vehicle>
    <vehicle id="bus_210_600" depart="600" departPos="0" departLane="best" arrivalPos="-1" type="bus" color="0,1,0"><route edges="133 31 115 110 185 92 90 m91 88 187 190 77[0] 53[1][0] 53[1][1][0] 77[1][0] 77[1][1]"/>
        <stop busStop="busStop#22" duration="20"/>
        <stop busStop="busStop#9" duration="20"/>
        <stop busStop="busStop#6" duration="20"/>
        <stop busStop="busStop#3" duration="20"/>
        <stop busStop="busStop#2" duration="20"/>
    </vehicle>
    <vehicle id="bus_32_600" depart="600" departPos="0" departLane="best" arrivalPos="-1" type="bus" color="0,1,0"><route edges="210 43[0] 43[1] 201 201c 204a[0] 204b[0] 204[1][0] 204[1][1]"/>
        <stop busStop="busStop#27" duration="20"/>
        <stop busStop="busStop#28" duration="20"/>
    </vehicle>
    <vehicle id="bus_33_600" depart="600" departPos="0" departLane="best" arrivalPos="-1" type="bus" color="0,1,0"><route edges="203[0] 203[1] 203[1]b 202 34 113 209"/>
        <stop busStop="busStop#23" duration="20"/>
        <stop busStop="busStop#24" duration="20"/>
        <stop busStop="busStop#25" duration="20"/>
        <stop busStop="busStop#26" duration="20"/>
    </vehicle>
    <vehicle id="bus_38_600" depart="600" departPos="0" departLane="best" arrivalPos="-1" type="bus" color="0,1,0"><route edges="131 65 57[0] 57[1] 62 159 42 39 35 38 15 24 22 59 53cd 53[0] 53[1][0] 79 68 11 86"/>
        <stop busStop="busStop#20" duration="20"/>
        <stop busStop="busStop#19" duration="20"/>
        <stop busStop="busStop#16" duration="20"/>
        <stop busStop="busStop#14" duration="20"/>
        <stop busStop="busStop#12" duration="20"/>
        <stop busStop="busStop#10" duration="20"/>
    </vehicle>
    <vehicle id="bus_39_600" depart="600" departPos="0" departLane="best" arrivalPos="-1" type="bus" color="0,1,0"><route edges="85 67 80 127 77[1][0] 77ab 77bc 21a 21b 103 16 37 36 40 41 160 61 58[0] 58[1] 200 60"/>
        <stop busStop="busStop#30" duration="20"/>
        <stop busStop="busStop#11" duration="20"/>
        <stop busStop="busStop#13" duration="20"/>
        <stop busStop="busStop#15" duration="20"/>
        <stop busStop="busStop#17" duration="20"/>
        <stop busStop="busStop#18" duration="20"/>
    </vehicle>
    <vehicle id="bus_870_600" depart="600" departPos="0" departLane="best" arrivalPos="-1" type="bus" color="0,1,0"><route edges="121 m2 54"/>
        <stop busStop="busStop#37" duration="20"/>
        <stop busStop="busStop#38" duration="20"/>
        <stop busStop="busStop#40" duration="20"/>
    </vehicle>
    <vehicle id="bus_14_720" depart="720" departPos="0" departLane="best" arrivalPos="-1" type="bus" color="0,1,0"><route edges="78[0] 56a 56b 77bc 77cd 53cd 53[0] 78[1][1] 189[0] 189[1][0]+20000 189[1][1] 188 87[0] 20001+87[1][0] 87[1][1] m90 89[0] 20002+89[1][0] 89[1][1] 91 186 109[0] 109[1][0]+20003 109[1][1] 116 46 134 134b"/>
        <stop busStop="busStop#31" duration="20"/>
        <stop busStop="busStop#32" duration="20"/>
        <stop busStop="busStop#33" duration="20"/>
        <stop busStop="busStop#34" duration="20"/>
        <stop busStop="busStop#21" duration="20"/>
    </vehicle>
    <vehicle id="bus_190_720" depart="720" departPos="0" departLane="best" arrivalPos="-1" type="bus" color="0,1,0"><route edges="121 m2 54"/>
        <stop busStop="busStop#37" duration="20"/>
        <stop busStop="busStop#38" duration="20"/>
        <stop busStop="busStop#40" duration="20"/>
    </vehicle>
    <vehicle id="bus_21_720" depart="720" departPos="0" departLane="best" arrivalPos="-1" type="bus" color="0,1,0"><route edges="78[0] 56a 56b 77bc 77cd 53cd 53[0] 78[1][1] 189[0] 189[1][0]+20000 189[1][1] 188 87[0] 20001+87[1][0] 87[1][1] m90 89[0] 20002+89[1][0] 89[1][1] 91 186 109[0] 109[1][0]+20003 109[1][1] 116 46 134 134b"/>
        <stop busStop="busStop#31" duration="20"/>
        <stop busStop="busStop#32" duration="20"/>
        <stop busStop="busStop#33" duration="20"/>
        <stop busStop="busStop#34" duration="20"/>
        <stop busStop="busStop#21" duration="20"/>
    </vehicle>
    <vehicle id="bus_89_720" depart="720" departPos="0" departLane="best" arrivalPos="-1" type="bus" color="0,1,0"><route edges="78[0] 56a 56b 77bc 77cd 53cd 53[0] 78[1][1] 189[0] 189[1][0]+20000 189[1][1] 188 87[0] 20001+87[1][0] 87[1][1] m90 89[0] 20002+89[1][0] 89[1][1] 91 186 109[0] 109[1][0]+20003 109[1][1] 116 46 134 134b"/>
        <stop busStop="busStop#31" duration="20"/>
        <stop busStop="busStop#32" duration="20"/>
        <stop busStop="busStop#21" duration="20"/>
    </vehicle>
    <vehicle id="bus_19_780" depart="780" departPos="0" departLane="best" arrivalPos="-1" type="bus" color="0,1,0"><route edges="55 55b 125 114"/>
        <stop busStop="busStop#35" duration="20"/>
        <stop busStop="busStop#36" duration="20"/>
    </vehicle>
    <vehicle id="bus_890_780" depart="780" departPos="0" departLane="best" arrivalPos="-1" type="bus" color="0,1,0"><route edges="133 31 115 110 185 92 90 m91 88 187 190 77[0] 53[1][0] 53[1][1][0] 77[1][0] 77[1][1]"/>
        <stop busStop="busStop#22" duration="20"/>
        <stop busStop="busStop#9" duration="20"/>
        <stop busStop="busStop#6" duration="20"/>
        <stop busStop="busStop#3" duration="20"/>
        <stop busStop="busStop#2" duration="20"/>
    </vehicle>
    <vehicle id="bus_140_840" depart="840" departPos="0" departLane="best" arrivalPos="-1" type="bus" color="0,1,0"><route edges="133 31 115 110 185 92 90 m91 88 187 190 77[0] 53[1][0] 53[1][1][0] 77[1][0] 77[1][1]"/>
        <stop busStop="busStop#22" duration="20"/>
        <stop busStop="busStop#9" duration="20"/>
        <stop busStop="busStop#6" duration="20"/>
        <stop busStop="busStop#3" duration="20"/>
        <stop busStop="busStop#2" duration="20"/>
    </vehicle>
    <vehicle id="bus_130_900" depart="900" departPos="0" departLane="best" arrivalPos="-1" type="bus" color="0,1,0"><route edges="121 m2 54"/>
        <stop busStop="busStop#37" duration="20"/>
        <stop busStop="busStop#38" duration="20"/>
        <stop busStop="busStop#40" duration="20"/>
    </vehicle>
    <vehicle id="bus_13_900" depart="900" departPos="0" departLane="best" arrivalPos="-1" type="bus" color="0,1,0"><route edges="55 55b 125 114"/>
        <stop busStop="busStop#35" duration="20"/>
        <stop busStop="busStop#36" duration="20"/>
    </vehicle>
    <vehicle id="bus_21_900" depart="900" departPos="0" departLane="best" arrivalPos="-1" type="bus" color="0,1,0"><route edges="78[0] 56a 56b 77bc 77cd 53cd 53[0] 78[1][1] 189[0] 189[1][0]+20000 189[1][1] 188 87[0] 20001+87[1][0] 87[1][1] m90 89[0] 20002+89[1][0] 89[1][1] 91 186 109[0] 109[1][0]+20003 109[1][1] 116 46 134 134b"/>
        <stop busStop="busStop#31" duration="20"/>
        <stop busStop="busStop#32" duration="20"/>
        <stop busStop="busStop#33" duration="20"/>
        <stop busStop="busStop#34" duration="20"/>
        <stop busStop="busStop#21" duration="20"/>
    </vehicle>
    <vehicle id="bus_14_960" depart="960" departPos="0" departLane="best" arrivalPos="-1" type="bus" color="0,1,0"><route edges="78[0] 56a 56b 77bc 77cd 53cd 53[0] 78[1][1] 189[0] 189[1][0]+20000 189[1][1] 188 87[0] 20001+87[1][0] 87[1][1] m90 89[0] 20002+89[1][0] 89[1][1] 91 186 109[0] 109[1][0]+20003 109[1][1] 116 46 134 134b"/>
        <stop busStop="busStop#31" duration="20"/>
        <stop busStop="busStop#32" duration="20"/>
        <stop busStop="busStop#33" duration="20"/>
        <stop busStop="busStop#34" duration="20"/>
        <stop busStop="busStop#21" duration="20"/>
    </vehicle>
    <vehicle id="bus_910_1000" depart="1000" departPos="0" departLane="best" arrivalPos="-1" type="bus" color="0,1,0"><route edges="121 m2 54"/>
        <stop busStop="busStop#37" duration="20"/>
        <stop busStop="busStop#38" duration="20"/>
        <stop busStop="busStop#40" duration="20"/>
    </vehicle>
    <vehicle id="bus_91_1000" depart="1000" departPos="0" departLane="best" arrivalPos="-1" type="bus" color="0,1,0"><route edges="55 55b 125 114"/>
        <stop busStop="busStop#35" duration="20"/>
        <stop busStop="busStop#39" duration="20"/>
    </vehicle>
    <vehicle id="bus_190_1020" depart="1020" departPos="0" departLane="best" arrivalPos="-1" type="bus" color="0,1,0"><route edges="121 m2 54"/>
        <stop busStop="busStop#37" duration="20"/>
        <stop busStop="busStop#38" duration="20"/>
        <stop busStop="busStop#40" duration="20"/>
    </vehicle>
    <vehicle id="bus_140_1080" depart="1080" departPos="0" departLane="best" arrivalPos="-1" type="bus" color="0,1,0"><route edges="133 31 115 110 185 92 90 m91 88 187 190 77[0] 53[1][0] 53[1][1][0] 77[1][0] 77[1][1]"/>
        <stop busStop="busStop#22" duration="20"/>
        <stop busStop="busStop#9" duration="20"/>
        <stop busStop="busStop#6" duration="20"/>
        <stop busStop="busStop#3" duration="20"/>
        <stop busStop="busStop#2" duration="20"/>
    </vehicle>
    <vehicle id="bus_19_1080" depart="1080" departPos="0" departLane="best" arrivalPos="-1" type="bus" color="0,1,0"><route edges="55 55b 125 114"/>
        <stop busStop="busStop#35" duration="20"/>
        <stop busStop="busStop#36" duration="20"/>
    </vehicle>
    <vehicle id="bus_130_1200" depart="1200" departPos="0" departLane="best" arrivalPos="-1" type="bus" color="0,1,0"><route edges="121 m2 54"/>
        <stop busStop="busStop#37" duration="20"/>
        <stop busStop="busStop#38" duration="20"/>
        <stop busStop="busStop#40" duration="20"/>
    </vehicle>
    <vehicle id="bus_13_1200" depart="1200" departPos="0" departLane="best" arrivalPos="-1" type="bus" color="0,1,0"><route edges="55 55b 125 114"/>
        <stop busStop="busStop#35" duration="20"/>
        <stop busStop="busStop#36" duration="20"/>
    </vehicle>
    <vehicle id="bus_14_1200" depart="1200" departPos="0" departLane="best" arrivalPos="-1" type="bus" color="0,1,0"><route edges="78[0] 56a 56b 77bc 77cd 53cd 53[0] 78[1][1] 189[0] 189[1][0]+20000 189[1][1] 188 87[0] 20001+87[1][0] 87[1][1] m90 89[0] 20002+89[1][0] 89[1][1] 91 186 109[0] 109[1][0]+20003 109[1][1] 116 46 134 134b"/>
        <stop busStop="busStop#31" duration="20"/>
        <stop busStop="busStop#32" duration="20"/>
        <stop busStop="busStop#33" duration="20"/>
        <stop busStop="busStop#34" duration="20"/>
        <stop busStop="busStop#21" duration="20"/>
    </vehicle>
    <vehicle id="bus_32_1200" depart="1200" departPos="0" departLane="best" arrivalPos="-1" type="bus" color="0,1,0"><route edges="210 43[0] 43[1] 201 201c 204a[0] 204b[0] 204[1][0] 204[1][1]"/>
        <stop busStop="busStop#27" duration="20"/>
        <stop busStop="busStop#28" duration="20"/>
    </vehicle>
    <vehicle id="bus_33_1200" depart="1200" departPos="0" departLane="best" arrivalPos="-1" type="bus" color="0,1,0"><route edges="203[0] 203[1] 203[1]b 202 34 113 209"/>
        <stop busStop="busStop#23" duration="20"/>
        <stop busStop="busStop#24" duration="20"/>
        <stop busStop="busStop#25" duration="20"/>
        <stop busStop="busStop#26" duration="20"/>
    </vehicle>
    <vehicle id="bus_810_1200" depart="1200" departPos="0" departLane="best" arrivalPos="-1" type="bus" color="0,1,0"><route edges="121 m2 54"/>
        <stop busStop="busStop#37" duration="20"/>
        <stop busStop="busStop#38" duration="20"/>
        <stop busStop="busStop#40" duration="20"/>
    </vehicle>
    <vehicle id="bus_81_1200" depart="1200" departPos="0" departLane="best" arrivalPos="-1" type="bus" color="0,1,0"><route edges="55 55b 125 114"/>
        <stop busStop="busStop#35" duration="20"/>
        <stop busStop="busStop#39" duration="20"/>
    </vehicle>
    <vehicle id="bus_860_1200" depart="1200" departPos="0" departLane="best" arrivalPos="-1" type="bus" color="0,1,0"><route edges="121 m2 54"/>
        <stop busStop="busStop#37" duration="20"/>
        <stop busStop="busStop#38" duration="20"/>
        <stop busStop="busStop#40" duration="20"/>
    </vehicle>
    <vehicle id="bus_86_1260" depart="1260" departPos="0" departLane="best" arrivalPos="-1" type="bus" color="0,1,0"><route edges="55 55b 125 114"/>
        <stop busStop="busStop#35" duration="20"/>
        <stop busStop="busStop#39" duration="20"/>
    </vehicle>
    <vehicle id="bus_140_1320" depart="1320" departPos="0" departLane="best" arrivalPos="-1" type="bus" color="0,1,0"><route edges="133 31 115 110 185 92 90 m91 88 187 190 77[0] 53[1][0] 53[1][1][0] 77[1][0] 77[1][1]"/>
        <stop busStop="busStop#22" duration="20"/>
        <stop busStop="busStop#9" duration="20"/>
        <stop busStop="busStop#6" duration="20"/>
        <stop busStop="busStop#3" duration="20"/>
        <stop busStop="busStop#2" duration="20"/>
    </vehicle>
    <vehicle id="bus_190_1320" depart="1320" departPos="0" departLane="best" arrivalPos="-1" type="bus" color="0,1,0"><route edges="121 m2 54"/>
        <stop busStop="busStop#37" duration="20"/>
        <stop busStop="busStop#38" duration="20"/>
        <stop busStop="busStop#40" duration="20"/>
    </vehicle>
    <vehicle id="bus_210_1320" depart="1320" departPos="0" departLane="best" arrivalPos="-1" type="bus" color="0,1,0"><route edges="133 31 115 110 185 92 90 m91 88 187 190 77[0] 53[1][0] 53[1][1][0] 77[1][0] 77[1][1]"/>
        <stop busStop="busStop#22" duration="20"/>
        <stop busStop="busStop#9" duration="20"/>
        <stop busStop="busStop#6" duration="20"/>
        <stop busStop="busStop#3" duration="20"/>
        <stop busStop="busStop#2" duration="20"/>
    </vehicle>
    <vehicle id="bus_87_1320" depart="1320" departPos="0" departLane="best" arrivalPos="-1" type="bus" color="0,1,0"><route edges="55 55b 125 114"/>
        <stop busStop="busStop#35" duration="20"/>
        <stop busStop="busStop#39" duration="20"/>
    </vehicle>
    <vehicle id="bus_19_1380" depart="1380" departPos="0" departLane="best" arrivalPos="-1" type="bus" color="0,1,0"><route edges="55 55b 125 114"/>
        <stop busStop="busStop#35" duration="20"/>
        <stop busStop="busStop#36" duration="20"/>
    </vehicle>
    <vehicle id="bus_14_1440" depart="1440" departPos="0" departLane="best" arrivalPos="-1" type="bus" color="0,1,0"><route edges="78[0] 56a 56b 77bc 77cd 53cd 53[0] 78[1][1] 189[0] 189[1][0]+20000 189[1][1] 188 87[0] 20001+87[1][0] 87[1][1] m90 89[0] 20002+89[1][0] 89[1][1] 91 186 109[0] 109[1][0]+20003 109[1][1] 116 46 134 134b"/>
        <stop busStop="busStop#31" duration="20"/>
        <stop busStop="busStop#32" duration="20"/>
        <stop busStop="busStop#33" duration="20"/>
        <stop busStop="busStop#34" duration="20"/>
        <stop busStop="busStop#21" duration="20"/>
    </vehicle>
    <vehicle id="bus_21_1440" depart="1440" departPos="0" departLane="best" arrivalPos="-1" type="bus" color="0,1,0"><route edges="78[0] 56a 56b 77bc 77cd 53cd 53[0] 78[1][1] 189[0] 189[1][0]+20000 189[1][1] 188 87[0] 20001+87[1][0] 87[1][1] m90 89[0] 20002+89[1][0] 89[1][1] 91 186 109[0] 109[1][0]+20003 109[1][1] 116 46 134 134b"/>
        <stop busStop="busStop#31" duration="20"/>
        <stop busStop="busStop#32" duration="20"/>
        <stop busStop="busStop#33" duration="20"/>
        <stop busStop="busStop#34" duration="20"/>
        <stop busStop="busStop#21" duration="20"/>
    </vehicle>
    <vehicle id="bus_130_1500" depart="1500" departPos="0" departLane="best" arrivalPos="-1" type="bus" color="0,1,0"><route edges="121 m2 54"/>
        <stop busStop="busStop#37" duration="20"/>
        <stop busStop="busStop#38" duration="20"/>
        <stop busStop="busStop#40" duration="20"/>
    </vehicle>
    <vehicle id="bus_13_1500" depart="1500" departPos="0" departLane="best" arrivalPos="-1" type="bus" color="0,1,0"><route edges="55 55b 125 114"/>
        <stop busStop="busStop#35" duration="20"/>
        <stop busStop="busStop#36" duration="20"/>
    </vehicle>
    <vehicle id="bus_910_1500" depart="1500" departPos="0" departLane="best" arrivalPos="-1" type="bus" color="0,1,0"><route edges="121 m2 54"/>
        <stop busStop="busStop#37" duration="20"/>
        <stop busStop="busStop#38" duration="20"/>
        <stop busStop="busStop#40" duration="20"/>
    </vehicle>
    <vehicle id="bus_91_1500" depart="1500" departPos="0" departLane="best" arrivalPos="-1" type="bus" color="0,1,0"><route edges="55 55b 125 114"/>
        <stop busStop="busStop#35" duration="20"/>
        <stop busStop="busStop#39" duration="20"/>
    </vehicle>
    <vehicle id="bus_140_1560" depart="1560" departPos="0" departLane="best" arrivalPos="-1" type="bus" color="0,1,0"><route edges="133 31 115 110 185 92 90 m91 88 187 190 77[0] 53[1][0] 53[1][1][0] 77[1][0] 77[1][1]"/>
        <stop busStop="busStop#22" duration="20"/>
        <stop busStop="busStop#9" duration="20"/>
        <stop busStop="busStop#6" duration="20"/>
        <stop busStop="busStop#3" duration="20"/>
        <stop busStop="busStop#2" duration="20"/>
    </vehicle>
    <vehicle id="bus_190_1620" depart="1620" departPos="0" departLane="best" arrivalPos="-1" type="bus" color="0,1,0"><route edges="121 m2 54"/>
        <stop busStop="busStop#37" duration="20"/>
        <stop busStop="busStop#38" duration="20"/>
        <stop busStop="busStop#40" duration="20"/>
    </vehicle>
    <vehicle id="bus_21_1620" depart="1620" departPos="0" departLane="best" arrivalPos="-1" type="bus" color="0,1,0"><route edges="78[0] 56a 56b 77bc 77cd 53cd 53[0] 78[1][1] 189[0] 189[1][0]+20000 189[1][1] 188 87[0] 20001+87[1][0] 87[1][1] m90 89[0] 20002+89[1][0] 89[1][1] 91 186 109[0] 109[1][0]+20003 109[1][1] 116 46 134 134b"/>
        <stop busStop="busStop#31" duration="20"/>
        <stop busStop="busStop#32" duration="20"/>
        <stop busStop="busStop#33" duration="20"/>
        <stop busStop="busStop#34" duration="20"/>
        <stop busStop="busStop#21" duration="20"/>
    </vehicle>
    <vehicle id="bus_89_1620" depart="1620" departPos="0" departLane="best" arrivalPos="-1" type="bus" color="0,1,0"><route edges="78[0] 56a 56b 77bc 77cd 53cd 53[0] 78[1][1] 189[0] 189[1][0]+20000 189[1][1] 188 87[0] 20001+87[1][0] 87[1][1] m90 89[0] 20002+89[1][0] 89[1][1] 91 186 109[0] 109[1][0]+20003 109[1][1] 116 46 134 134b"/>
        <stop busStop="busStop#31" duration="20"/>
        <stop busStop="busStop#32" duration="20"/>
        <stop busStop="busStop#21" duration="20"/>
    </vehicle>
    <vehicle id="bus_14_1680" depart="1680" departPos="0" departLane="best" arrivalPos="-1" type="bus" color="0,1,0"><route edges="78[0] 56a 56b 77bc 77cd 53cd 53[0] 78[1][1] 189[0] 189[1][0]+20000 189[1][1] 188 87[0] 20001+87[1][0] 87[1][1] m90 89[0] 20002+89[1][0] 89[1][1] 91 186 109[0] 109[1][0]+20003 109[1][1] 116 46 134 134b"/>
        <stop busStop="busStop#31" duration="20"/>
        <stop busStop="busStop#32" duration="20"/>
        <stop busStop="busStop#33" duration="20"/>
        <stop busStop="busStop#34" duration="20"/>
        <stop busStop="busStop#21" duration="20"/>
    </vehicle>
    <vehicle id="bus_19_1680" depart="1680" departPos="0" departLane="best" arrivalPos="-1" type="bus" color="0,1,0"><route edges="55 55b 125 114"/>
        <stop busStop="busStop#35" duration="20"/>
        <stop busStop="busStop#36" duration="20"/>
    </vehicle>
    <vehicle id="bus_890_1680" depart="1680" departPos="0" departLane="best" arrivalPos="-1" type="bus" color="0,1,0"><route edges="133 31 115 110 185 92 90 m91 88 187 190 77[0] 53[1][0] 53[1][1][0] 77[1][0] 77[1][1]"/>
        <stop busStop="busStop#22" duration="20"/>
        <stop busStop="busStop#9" duration="20"/>
        <stop busStop="busStop#6" duration="20"/>
        <stop busStop="busStop#3" duration="20"/>
        <stop busStop="busStop#2" duration="20"/>
    </vehicle>
    <vehicle id="bus_130_1800" depart="1800" departPos="0" departLane="best" arrivalPos="-1" type="bus" color="0,1,0"><route edges="121 m2 54"/>
        <stop busStop="busStop#37" duration="20"/>
        <stop busStop="busStop#38" duration="20"/>
        <stop busStop="busStop#40" duration="20"/>
    </vehicle>
    <vehicle id="bus_13_1800" depart="1800" departPos="0" departLane="best" arrivalPos="-1" type="bus" color="0,1,0"><route edges="55 55b 125 114"/>
        <stop busStop="busStop#35" duration="20"/>
        <stop busStop="busStop#36" duration="20"/>
    </vehicle>
    <vehicle id="bus_140_1800" depart="1800" departPos="0" departLane="best" arrivalPos="-1" type="bus" color="0,1,0"><route edges="133 31 115 110 185 92 90 m91 88 187 190 77[0] 53[1][0] 53[1][1][0] 77[1][0] 77[1][1]"/>
        <stop busStop="busStop#22" duration="20"/>
        <stop busStop="busStop#9" duration="20"/>
        <stop busStop="busStop#6" duration="20"/>