<routes>
    <vehicle depart="0" departPos="0" departLane="best" arrivalPos="-1" type="private" id="Audinot_7_0"><route edges="131 117 209"></route></vehicle>
    <vehicle depart="0" departPos="0" departLane="best" arrivalPos="-1" type="private" id="Costa_12_0"><route edges="78[0] 56a 56b 77bc 77cd 53cd 53[0] 53[1][0] 79 68 11 84 180 136"></route></vehicle>
    <vehicle depart="0" departPos="0" departLane="best" arrivalPos="-1" type="ignoring" id="Pepoli_3_0"><route edges="210 43[0] 118 65 57[0] 57[1] 62 159 42 39 35 38 15 14"></route></vehicle>
    <vehicle depart="0" departPos="0" departLane="best" arrivalPos="-1" type="private" id="Silvani_11_0"><route edges="203[0] 114"></route></vehicle>
    <vehicle depart="0" departPos="0" departLane="best" arrivalPos="-1" type="private" id="Togliatti_71_0"><route edges="85 72[0] 72[1] 69 161 122 3 2 202 34 113 209"></route></vehicle>
    <vehicle depart="0" departPos="0" departLane="best" arrivalPos="-1" type="private" id="Turati_10_0"><route edges="195 61 58[0] 58[1] 66 119 116 46 201 201c 204a[0] 204b[0] 204[1][0] 204[1][1]"></route></vehicle>
    <vehicle depart="0" departPos="0" departLane="best" arrivalPos="-1" type="private" id="XXI_Aprile_7_0"><route edges="8 9 211 45 206 32 40 41 160 61 58[0] 58[1] 66 117 209"></route></vehicle>
    <vehicle depart="2" departPos="0" departLane="best" arrivalPos="-1" type="private" id="Costa_12_1"><route edges="78[0] 56a 56b 77bc 77cd 53cd 53[0] 53[1][0] 79 68 11 84 180 136"></route></vehicle>
    <vehicle depart="2" departPos="0" departLane="best" arrivalPos="-1" type="private" id="Silvani_11_1"><route edges="203[0] 114"></route></vehicle>
    <vehicle depart="2" departPos="0" departLane="best" arrivalPos="-1" type="private" id="Togliatti_71_2"><route edges="85 72[0] 72[1] 69 161 122 3 2 202 34 113 209"></route></vehicle>
    <vehicle depart="3" departPos="0" departLane="best" arrivalPos="-1" type="ignoring" id="Pepoli_3_2"><route edges="210 43[0] 118 65 57[0] 57[1] 62 159 42 39 35 38 15 14"></route></vehicle>
    <vehicle depart="3" departPos="0" departLane="best" arrivalPos="-1" type="private" id="XXI_Aprile_7_1"><route edges="8 9 211 45 206 32 40 41 160 61 58[0] 58[1] 66 117 209"></route></vehicle>
    <vehicle depart="4" departPos="0" departLane="best" arrivalPos="-1" type="private" id="Silvani_7_2"><route edges="203[0] 203[1] 203[1]b 202 34 113 209"></route></vehicle>
    <vehicle depart="4" departPos="0" departLane="best" arrivalPos="-1" type="private" id="Togliatti_71_3"><route edges="85 72[0] 72[1] 69 161 122 3 2 202 34 113 209"></route></vehicle>
    <vehicle depart="4" departPos="0" departLane="best" arrivalPos="-1" type="private" id="Vittorio_Veneto_2_1"><route edges="224[0] 224[1] 181 18 17 71 67 80 127 77[1][0] 77[1][1]"></route></vehicle>
    <vehicle depart="5" departPos="0" departLane="best" arrivalPos="-1" type="private" id="Costa_1_2"><route edges="78[0] 56a 56b 77bc 77cd 53cd 53[0] 53[1][0] 79 68 11 86"></route></vehicle>
    <vehicle depart="5" departPos="0" departLane="best" arrivalPos="-1" type="private" id="Pepoli_11_3"><route edges="210 43[0] 43[1] 201 201c 204a[0] 124 114"></route></vehicle>
    <vehicle depart="6" departPos="0" departLane="best" arrivalPos="-1" type="private" id="Pepoli_10_4"><route edges="210 43[0] 43[1] 201 201c 204a[0] 204b[0] 204[1][0] 204[1][1]"></route></vehicle>
    <vehicle depart="7" departPos="0" departLane="best" arrivalPos="-1" type="private" id="Costa_12_3"><route edges="78[0] 56a 56b 77bc 77cd 53cd 53[0] 53[1][0] 79 68 11 84 180 136"></route></vehicle>
    <vehicle depart="7" departPos="0" departLane="best" arrivalPos="-1" type="private" id="Silvani_7_3"><route edges="203[0] 203[1] 203[1]b 202 34 113 209"></route></vehicle>
    <vehicle depart="7" departPos="0" departLane="best" arrivalPos="-1" type="private" id="Togliatti_72_5"><route edges="85 67 80 127 77[1][0] 77ab 77bc 77cd 53cd 53[0] 78[1][1] 189[0] 189[1][0]+20000 189[1][1] 188 87[0] 20001+87[1][0] 87[1][1] m90 89[0] 20002+89[1][0] 89[1][1] 91 186 109[0] 109[1][0]+20003 109[1][1] 116 46 113 209"></route></vehicle>
    <vehicle depart="8" departPos="0" departLane="best" arrivalPos="-1" type="private" id="Pepoli_11_5"><route edges="210 43[0] 43[1] 201 201c 204a[0] 124 114"></route></vehicle>
    <vehicle depart="8" departPos="0" departLane="best" arrivalPos="-1" type="private" id="Togliatti_71_6"><route edges="85 72[0] 72[1] 69 161 122 3 2 202 34 113 209"></route></vehicle>
    <vehicle depart="9" departPos="0" departLane="best" arrivalPos="-1" type="private" id="Silvani_7_4"><route edges="203[0] 203[1] 203[1]b 202 34 113 209"></route></vehicle>
    <vehicle depart="9" departPos="0" departLane="best" arrivalPos="-1" type="private" id="Togliatti_10_7"><route edges="85 72[0] 72[1] 69 161 122 1b 1 204a[0] 204b[0] 204[1][0] 204[1][1]"></route></vehicle>
    <vehicle depart="10" departPos="0" departLane="best" arrivalPos="-1" type="private" id="Costa_1_4"><route edges="78[0] 56a 56b 77bc 77cd 53cd 53[0] 53[1][0] 79 68 11 86"></route></vehicle>
    <vehicle depart="10" departPos="0" departLane="best" arrivalPos="-1" type="private" id="Pepoli_11_6"><route edges="210 43[0] 43[1] 201 201c 204a[0] 124 114"></route></vehicle>
    <vehicle depart="10" departPos="0" departLane="best" arrivalPos="-1" type="private" id="XXI_Aprile_94_3"><route edges="13 104 24 22 59 53cd 53[0] 78[1][1] 189[0] 189[1][0]+20000 189[1][1] 188 87[0] 20001+87[1][0] 87[1][1] m90 171 161 122 1b 1 204a[0] 204b[0] 54"></route></vehicle>
    <vehicle depart="11" departPos="0" departLane="best" arrivalPos="-1" type="private" id="Silvani_7_5"><route edges="203[0] 203[1] 203[1]b 202 34 113 209"></route></vehicle>
    <vehicle depart="11" departPos="0" departLane="best" arrivalPos="-1" type="private" id="Togliatti_2_8"><route edges="85 67 80 127 77[1][0] 77[1][1]"></route></vehicle>
    <vehicle depart="12" departPos="0" departLane="best" arrivalPos="-1" type="private" id="Pepoli_11_7"><route edges="210 43[0] 43[1] 201 201c 204a[0] 124 114"></route></vehicle>
    <vehicle depart="12" departPos="0" departLane="best" arrivalPos="-1" type="private" id="Togliatti_10_9"><route edges="85 72[0] 72[1] 69 161 122 1b 1 204a[0] 204b[0] 204[1][0] 204[1][1]"></route></vehicle>
    <vehicle depart="13" departPos="0" departLane="best" arrivalPos="-1" type="private" id="Pepoli_11_8"><route edges="210 43[0] 43[1] 201 201c 204a[0] 124 114"></route></vehicle>
    <vehicle depart="14" departPos="0" departLane="best" arrivalPos="-1" type="ignoring" id="Silvani_3_6"><route edges="203[0] 203[1] 203[1]b 202 34 113 118 65 57[0] 57[1] 62 159 42 39 35 38 15 14"></route></vehicle>
    <vehicle depart="14" departPos="0" departLane="best" arrivalPos="-1" type="private" id="Togliatti_10_10"><route edges="85 72[0] 72[1] 69 161 122 1b 1 204a[0] 204b[0] 204[1][0] 204[1][1]"></route></vehicle>
    <vehicle depart="14" departPos="0" departLane="best" arrivalPos="-1" type="private" id="XXI_Aprile_113_4"><route edges="13 104 24 22 59 53cd 53[0] 53[1][0] 79 74 72[1] 69 161 122 1b 1 204a[0] 124 114"></route></vehicle>
    <vehicle depart="15" departPos="0" departLane="best" arrivalPos="-1" type="private" id="Costa_50_6"><route edges="78[0] 56a m1 21b 103 16 37 36 40 41 160 61 58[0] 58[1] 200 60"></route></vehicle>
    <vehicle depart="15" departPos="0" departLane="best" arrivalPos="-1" type="private" id="Pepoli_11_9"><route edges="210 43[0] 43[1] 201 201c 204a[0] 124 114"></route></vehicle>
    <vehicle depart="16" departPos="0" departLane="best" arrivalPos="-1" type="private" id="Silvani_7_7"><route edges="203[0] 203[1] 203[1]b 202 34 113 209"></route></vehicle>
    <vehicle depart="17" departPos="0" departLane="best" arrivalPos="-1" type="private" id="Pepoli_10_10"><route edges="210 43[0] 43[1] 201 201c 204a[0] 204b[0] 204[1][0] 204[1][1]"></route></vehicle>
    <vehicle depart="17" departPos="0" departLane="best" arrivalPos="-1" type="private" id="Togliatti_10_12"><route edges="85 72[0] 72[1] 69 161 122 1b 1 204a[0] 204b[0] 204[1][0] 204[1][1]"></route></vehicle>
    <vehicle depart="17" departPos="0" departLane="best" arrivalPos="-1" type="private" id="XXI_Aprile_104_5"><route edges="13 104 24 22 59 53cd 53[0] 78[1][1] 189[0] 189[1][0]+20000 189[1][1] 188 87[0] 20001+87[1][0] 87[1][1] m90 171 161 122 1b 1 204a[0] 204b[0] 204[1][0] 204[1][1]"></route></vehicle>
    <vehicle depart="18" departPos="0" departLane="best" arrivalPos="-1" type="private" id="Costa_12_7"><route edges="78[0] 56a 56b 77bc 77cd 53cd 53[0] 53[1][0] 79 68 11 84 180 136"></route></vehicle>
    <vehicle depart="18" departPos="0" departLane="best" arrivalPos="-1" type="private" id="Pepoli_10_11"><route edges="210 43[0] 43[1] 201 201c 204a[0] 204b[0] 204[1][0] 204[1][1]"></route></vehicle>
    <vehicle depart="18" departPos="0" departLane="best" arrivalPos="-1" type="private" id="Silvani_11_8"><route edges="203[0] 114"></route></vehicle>
    <vehicle depart="18" departPos="0" departLane="best" arrivalPos="-1" type="private" id="Togliatti_9_13"><route edges="85 72[0] 72[1] 69 161 122 1b 1 204a[0] 204b[0] 54"></route></vehicle>
    <vehicle depart="18" departPos="0" departLane="best" arrivalPos="-1" type="private" id="Vittorio_Veneto_1_4"><route edges="224[0] 224[1] 181 18 17 71 86"></route></vehicle>
    <vehicle depart="20" departPos="0" departLane="best" arrivalPos="-1" type="private" id="Costa_50_8"><route edges="78[0] 56a m1 21b 103 16 37 36 40 41 160 61 58[0] 58[1] 200 60"></route></vehicle>
    <vehicle depart="20" departPos="0" departLane="best" arrivalPos="-1" type="ignoring" id="Pepoli_3_12"><route edges="210 43[0] 118 65 57[0] 57[1] 62 159 42 39 35 38 15 14"></route></vehicle>
    <vehicle depart="21" departPos="0" departLane="best" arrivalPos="-1" type="ignoring" id="Audinot_12_1"><route edges="131 65 57[0] 57[1] 62 159 42 39 35 38 15 24 22 59 53cd 53[0] 53[1][0] 79 68 11 84 180 136"></route></vehicle>
    <vehicle depart="21" departPos="0" departLane="best" arrivalPos="-1" type="private" id="Silvani_11_9"><route edges="203[0] 114"></route></vehicle>
    <vehicle depart="21" departPos="0" departLane="best" arrivalPos="-1" type="private" id="Togliatti_12_15"><route edges="85 84 180 136"></route></vehicle>
    <vehicle depart="21" departPos="0" departLane="best" arrivalPos="-1" type="private" id="XXI_Aprile_12_6"><route edges="13 104 24 22 59 53cd 53[0] 53[1][0] 79 68 11 84 180 136"></route></vehicle>
    <vehicle depart="23" departPos="0" departLane="best" arrivalPos="-1" type="private" id="Costa_12_9"><route edges="78[0] 56a 56b 77bc 77cd 53cd 53[0] 53[1][0] 79 68 11 84 180 136"></route></vehicle>
    <vehicle depart="23" departPos="0" departLane="best" arrivalPos="-1" type="private" id="Silvani_7_10"><route edges="203[0] 203[1] 203[1]b 202 34 113 209"></route></vehicle>
    <vehicle depart="24" departPos="0" departLane="best" arrivalPos="-1" type="ignoring" id="Pepoli_3_14"><route edges="210 43[0] 118 65 57[0] 57[1] 62 159 42 39 35 38 15 14"></route></vehicle>
    <vehicle depart="24" departPos="0" departLane="best" arrivalPos="-1" type="private" id="Togliatti_71_17"><route edges="85 72[0] 72[1] 69 161 122 3 2 202 34 113 209"></route></vehicle>
    <vehicle depart="24" departPos="0" departLane="best" arrivalPos="-1" type="private" id="XXI_Aprile_7_7"><route edges="8 9 211 45 206 32 40 41 160 61 58[0] 58[1] 66 117 209"></route></vehicle>
    <vehicle depart="25" departPos="0" departLane="best" arrivalPos="-1" type="private" id="Pepoli_11_15"><route edges="210 43[0] 43[1] 201 201c 204a[0] 124 114"></route></vehicle>
    <vehicle depart="25" departPos="0" departLane="best" arrivalPos="-1" type="private" id="Silvani_7_11"><route edges="203[0] 203[1] 203[1]b 202 34 113 209"></route></vehicle>
    <vehicle depart="25" departPos="0" departLane="best" arrivalPos="-1" type="private" id="Togliatti_3_18"><route edges="85 67 80 127 77[1][0] 77ab 77bc 21a 21b 103 14"></route></vehicle>
    <vehicle depart="27" departPos="0" departLane="best" arrivalPos="-1" type="private" id="Pepoli_8_16"><route edges="210 43[0] 43[1] 134 134b"></route></vehicle>
    <vehicle depart="27" departPos="0" departLane="best" arrivalPos="-1" type="private" id="Togliatti_71_19"><route edges="85 72[0] 72[1] 69 161 122 3 2 202 34 113 209"></route></vehicle>
    <vehicle depart="27" departPos="0" departLane="best" arrivalPos="-1" type="private" id="Vittorio_Veneto_2_6"><route edges="224[0] 224[1] 181 18 17 71 67 80 127 77[1][0] 77[1][1]"></route></vehicle>
    <vehicle depart="28" departPos="0" departLane="best" arrivalPos="-1" type="private" id="Costa_12_11"><route edges="78[0] 56a 56b 77bc 77cd 53cd 53[0] 53[1][0] 79 68 11 84 180 136"></route></vehicle>
    <vehicle depart="28" departPos="0" departLane="best" arrivalPos="-1" type="private" id="Silvani_11_12"><route edges="203[0] 114"></route></vehicle>
    <vehicle depart="28" departPos="0" departLane="best" arrivalPos="-1" type="private" id="Togliatti_10_20"><route edges="85 72[0] 72[1] 69 161 122 1b 1 204a[0] 204b[0] 204[1][0] 204[1][1]"></route></vehicle>
    <vehicle depart="28" departPos="0" departLane="best" arrivalPos="-1" type="private" id="XXI_Aprile_7_8"><route edges="8 9 211 45 206 32 40 41 160 61 58[0] 58[1] 66 117 209"></route></vehicle>
    <vehicle depart="29" departPos="0" departLane="best" arrivalPos="-1" type="private" id="Pepoli_11_17"><route edges="210 43[0] 43[1] 201 201c 204a[0] 124 114"></route></vehicle>
    <vehicle depart="29" departPos="0" departLane="best" arrivalPos="-1" type="private" id="Togliatti_9_21"><route edges="85 72[0] 72[1] 69 161 122 1b 1 204a[0] 204b[0] 54"></route></vehicle>
    <vehicle depart="30" departPos="0" departLane="best" arrivalPos="-1" type="private" id="Pepoli_10_18"><route edges="210 43[0] 43[1] 201 201c 204a[0] 204b[0] 204[1][0] 204[1][1]"></route></vehicle>
    <vehicle depart="30" departPos="0" departLane="best" arrivalPos="-1" type="private" id="Silvani_11_13"><route edges="203[0] 114"></route></vehicle>
    <vehicle depart="31" departPos="0" departLane="best" arrivalPos="-1" type="private" id="Togliatti_9_22"><route edges="85 72[0] 72[1] 69 161 122 1b 1 204a[0] 204b[0] 54"></route></vehicle>
    <vehicle depart="32" departPos="0" departLane="best" arrivalPos="-1" type="private" id="Pepoli_10_19"><route edges="210 43[0] 43[1] 201 201c 204a[0] 204b[0] 204[1][0] 204[1][1]"></route></vehicle>
    <vehicle depart="32" departPos="0" departLane="best" arrivalPos="-1" type="private" id="Vittorio_Veneto_3_7"><route edges="224[0] 224[1] 181 18 17 71 67 80 127 77[1][0] 77ab 77bc 21a 21b 103 14"></route></vehicle>
    <vehicle depart="33" departPos="0" departLane="best" arrivalPos="-1" type="private" id="Costa_12_13"><route edges="78[0] 56a 56b 77bc 77cd 53cd 53[0] 53[1][0] 79 68 11 84 180 136"></route></vehicle>
    <vehicle depart="33" departPos="0" departLane="best" arrivalPos="-1" type="private" id="Silvani_11_14"><route edges="203[0] 114"></route></vehicle>
    <vehicle depart="34" departPos="0" departLane="best" arrivalPos="-1" type="private" id="Pepoli_10_20"><route edges="210 43[0] 43[1] 201 201c 204a[0] 204b[0] 204[1][0] 204[1][1]"></route></vehicle>
    <vehicle depart="34" departPos="0" departLane="best" arrivalPos="-1" type="private" id="Togliatti_12_24"><route edges="85 84 180 136"></route></vehicle>
    <vehicle depart="34" departPos="0" departLane="best" arrivalPos="-1" type="private" id="Turati_10_1"><route edges="195 61 58[0] 58[1] 66 119 116 46 201 201c 204a[0] 204b[0] 204[1][0] 204[1][1]"></route></vehicle>
    <vehicle depart="35" departPos="0" departLane="best" arrivalPos="-1" type="private" id="Silvani_7_15"><route edges="203[0] 203[1] 203[1]b 202 34 113 209"></route></vehicle>
    <vehicle depart="35" departPos="0" departLane="best" arrivalPos="-1" type="private" id="Togliatti_71_25"><route edges="85 72[0] 72[1] 69 161 122 3 2 202 34 113 209"></route></vehicle>
    <vehicle depart="35" departPos="0" departLane="best" arrivalPos="-1" type="private" id="XXI_Aprile_12_10"><route edges="13 104 24 22 59 53cd 53[0] 53[1][0] 79 68 11 84 180 136"></route></vehicle>
    <vehicle depart="36" departPos="0" departLane="best" arrivalPos="-1" type="private" id="Costa_12_14"><route edges="78[0] 56a 56b 77bc 77cd 53cd 53[0] 53[1][0] 79 68 11 84 180 136"></route></vehicle>
    <vehicle depart="36" departPos="0" departLane="best" arrivalPos="-1" type="private" id="Pepoli_8_21"><route edges="210 43[0] 43[1] 134 134b"></route></vehicle>
    <vehicle depart="37" departPos="0" departLane="best" arrivalPos="-1" type="private" id="Pepoli_10_22"><route edges="210 43[0] 43[1] 201 201c 204a[0] 204b[0] 204[1][0] 204[1][1]"></route></vehicle>
    <vehicle depart="37" departPos="0" departLane="best" arrivalPos="-1" type="private" id="Silvani_11_16"><route edges="203[0] 114"></route></vehicle>
    <vehicle depart="37" departPos="0" departLane="best" arrivalPos="-1" type="private" id="Togliatti_80_26"><route edges="85 72[0] 72[1] 69 161 122 3 2 202 34 134 134b"></route></vehicle>
    <vehicle depart="38" departPos="0" departLane="best" arrivalPos="-1" type="private" id="Togliatti_10_27"><route edges="85 72[0] 72[1] 69 161 122 1b 1 204a[0] 204b[0] 204[1][0] 204[1][1]"></route></vehicle>
    <vehicle depart="39" departPos="0" departLane="best" arrivalPos="-1" type="private" id="Costa_1_15"><route edges="78[0] 56a 56b 77bc 77cd 53cd 53[0] 53[1][0] 79 68 11 86"></route></vehicle>
    <vehicle depart="39" departPos="0" departLane="best" arrivalPos="-1" type="private" id="Pepoli_8_23"><route edges="210 43[0] 43[1] 134 134b"></route></vehicle>
    <vehicle depart="39" departPos="0" departLane="best" arrivalPos="-1" type="private" id="Togliatti_10_28"><route edges="85 72[0] 72[1] 69 161 122 1b 1 204a[0] 204b[0] 204[1][0] 204[1][1]"></route></vehicle>
    <vehicle depart="39" departPos="0" departLane="best" arrivalPos="-1" type="private" id="XXI_Aprile_12_11"><route edges="13 104 24 22 59 53cd 53[0] 53[1][0] 79 68 11 84 180 136"></route></vehicle>
    <vehicle depart="40" departPos="0" departLane="best" arrivalPos="-1" type="private" id="Silvani_11_17"><route edges="203[0] 114"></route></vehicle>
    <vehicle depart="41" departPos="0" departLane="best" arrivalPos="-1" type="private" id="Costa_700_16"><route edges="78[0] 56a 56b 77bc 77cd 53cd 53[0] 78[1][1] 189[0] 189[1][0]+20000 189[1][1] 188 87[0] 20001+87[1][0] 87[1][1] m90 89[0] 20002+89[1][0] 89[1][1] 91 186 109[0] 109[1][0]+20003 109[1][1] 120 117 209"></route></vehicle>
    <vehicle depart="41" departPos="0" departLane="best" arrivalPos="-1" type="private" id="Pepoli_11_24"><route edges="210 43[0] 43[1] 201 201c 204a[0] 124 114"></route></vehicle>
    <vehicle depart="42" departPos="0" departLane="best" arrivalPos="-1" type="private" id="Audinot_10_2"><route edges="131 119 116 46 201 201c 204a[0] 204b[0] 204[1][0] 204[1][1]"></route></vehicle>
    <vehicle depart="42" departPos="0" departLane="best" arrivalPos="-1" type="private" id="Pepoli_8_25"><route edges="210 43[0] 43[1] 134 134b"></route></vehicle>
    <vehicle depart="42" departPos="0" departLane="best" arrivalPos="-1" type="private" id="Silvani_7_18"><route edges="203[0] 203[1] 203[1]b 202 34 113 209"></route></vehicle>
    <vehicle depart="42" departPos="0" departLane="best" arrivalPos="-1" type="private" id="Togliatti_10_30"><route edges="85 72[0] 72[1] 69 161 122 1b 1 204a[0] 204b[0] 204[1][0] 204[1][1]"></route></vehicle>
    <vehicle depart="42" departPos="0" departLane="best" arrivalPos="-1" type="private" id="XXI_Aprile_2_12"><route edges="13 104 24 22 59 53cd 53[0] 53[1][0] 53[1][1][0] 77[1][0] 77[1][1]"></route></vehicle>
    <vehicle depart="44" departPos="0" departLane="best" arrivalPos="-1" type="private" id="Costa_1_17"><route edges="78[0] 56a 56b 77bc 77cd 53cd 53[0] 53[1][0] 79 68 11 86"></route></vehicle>
    <vehicle depart="44" departPos="0" departLane="best" arrivalPos="-1" type="private" id="Silvani_7_19"><route edges="203[0] 203[1] 203[1]b 202 34 113 209"></route></vehicle>
    <vehicle depart="44" departPos="0" departLane="best" arrivalPos="-1" type="private" id="Togliatti_3_31"><route edges="85 67 80 127 77[1][0] 77ab 77bc 21a 21b 103 14"></route></vehicle>
    <vehicle depart="45" departPos="0" departLane="best" arrivalPos="-1" type="private" id="Togliatti_2_32"><route edges="85 67 80 127 77[1][0] 77[1][1]"></route></vehicle>
    <vehicle depart="45" departPos="0" departLane="best" arrivalPos="-1" type="private" id="Vittorio_Veneto_1_10"><route edges="224[0] 224[1] 181 18 17 71 86"></route></vehicle>
    <vehicle depart="46" departPos="0" departLane="best" arrivalPos="-1" type="private" id="Pepoli_10_27"><route edges="210 43[0] 43[1] 201 201c 204a[0] 204b[0] 204[1][0] 204[1][1]"></route></vehicle>
    <vehicle depart="46" departPos="0" departLane="best" arrivalPos="-1" type="private" id="Togliatti_10_33"><route edges="85 72[0] 72[1] 69 161 122 1b 1 204a[0] 204b[0] 204[1][0] 204[1][1]"></route></vehicle>
    <vehicle depart="46" departPos="0" departLane="best" arrivalPos="-1" type="private" id="XXI_Aprile_7_13"><route edges="8 9 211 45 206 32 40 41 160 61 58[0] 58[1] 66 117 209"></route></vehicle>
    <vehicle depart="47" departPos="0" departLane="best" arrivalPos="-1" type="private" id="Costa_12_18"><route edges="78[0] 56a 56b 77bc 77cd 53cd 53[0] 53[1][0] 79 68 11 84 180 136"></route></vehicle>
    <vehicle depart="47" departPos="0" departLane="best" arrivalPos="-1" type="private" id="Silvani_7_20"><route edges="203[0] 203[1] 203[1]b 202 34 113 209"></route></vehicle>
    <vehicle depart="48" departPos="0" departLane="best" arrivalPos="-1" type="private" id="Pepoli_8_28"><route edges="210 43[0] 43[1] 134 134b"></route></vehicle>
    <vehicle depart="49" departPos="0" departLane="best" arrivalPos="-1" type="private" id="Costa_1_19"><route edges="78[0] 56a 56b 77bc 77cd 53cd 53[0] 53[1][0] 79 68 11 86"></route></vehicle>
    <vehicle depart="49" departPos="0" departLane="best" arrivalPos="-1" type="private" id="Pepoli_11_29"><route edges="210 43[0] 43[1] 201 201c 204a[0] 124 114"></route></vehicle>
    <vehicle depart="49" departPos="0" departLane="best" arrivalPos="-1" type="private" id="Silvani_7_21"><route edges="203[0] 203[1] 203[1]b 202 34 113 209"></route></vehicle>
    <vehicle depart="49" departPos="0" departLane="best" arrivalPos="-1" type="private" id="Togliatti_10_35"><route edges="85 72[0] 72[1] 69 161 122 1b 1 204a[0] 204b[0] 204[1][0] 204[1][1]"></route></vehicle>
    <vehicle depart="49" departPos="0" departLane="best" arrivalPos="-1" type="private" id="XXI_Aprile_9_14"><route edges="13 104 16 37 36 40 153 87[0] 20001+87[1][0] 87[1][1] m90 171 161 122 1b 1 204a[0] 204b[0] 54"></route></vehicle>
    <vehicle depart="50" departPos="0" departLane="best" arrivalPos="-1" type="private" id="Vittorio_Veneto_2_11"><route edges="224[0] 224[1] 181 18 17 71 67 80 127 77[1][0] 77[1][1]"></route></vehicle>
    <vehicle depart="51" departPos="0" departLane="best" arrivalPos="-1" type="private" id="Pepoli_11_30"><route edges="210 43[0] 43[1] 201 201c 204a[0] 124 114"></route></vehicle>
    <vehicle depart="51" departPos="0" departLane="best" arrivalPos="-1" type="private" id="Silvani_7_22"><route edges="203[0] 203[1] 203[1]b 202 34 113 209"></route></vehicle>
    <vehicle depart="51" departPos="0" departLane="best" arrivalPos="-1" type="private" id="Togliatti_72_36"><route edges="85 67 80 127 77[1][0] 77ab 77bc 77cd 53cd 53[0] 78[1][1] 189[0] 189[1][0]+20000 189[1][1] 188 87[0] 20001+87[1][0] 87[1][1] m90 89[0] 20002+89[1][0] 89[1][1] 91 186 109[0] 109[1][0]+20003 109[1][1] 116 46 113 209"></route></vehicle>
    <vehicle depart="52" departPos="0" departLane="best" arrivalPos="-1" type="private" id="Costa_50_20"><route edges="78[0] 56a m1 21b 103 16 37 36 40 41 160 61 58[0] 58[1] 200 60"></route></vehicle>
    <vehicle depart="52" departPos="0" departLane="best" arrivalPos="-1" type="private" id="Togliatti_10_37"><route edges="85 72[0] 72[1] 69 161 122 1b 1 204a[0] 204b[0] 204[1][0] 204[1][1]"></route></vehicle>
    <vehicle depart="53" departPos="0" departLane="best" arrivalPos="-1" type="private" id="Pepoli_10_31"><route edges="210 43[0] 43[1] 201 201c 204a[0] 204b[0] 204[1][0] 204[1][1]"></route></vehicle>
    <vehicle depart="53" departPos="0" departLane="best" arrivalPos="-1" type="private" id="XXI_Aprile_7_15"><route edges="8 9 211 45 206 32 40 41 160 61 58[0] 58[1] 66 117 209"></route></vehicle>
    <vehicle depart="54" departPos="0" departLane="best" arrivalPos="-1" type="private" id="Costa_3_21"><route edges="78[0] 56a m1 21b 103 14"></route></vehicle>
    <vehicle depart="54" departPos="0" departLane="best" arrivalPos="-1" type="private" id="Pepoli_11_32"><route edges="210 43[0] 43[1] 201 201c 204a[0] 124 114"></route></vehicle>
    <vehicle depart="54" departPos="0" departLane="best" arrivalPos="-1" type="private" id="Silvani_11_23"><route edges="203[0] 114"></route></vehicle>
    <vehicle depart="54" departPos="0" departLane="best" arrivalPos="-1" type="private" id="Togliatti_9_38"><route edges="85 72[0] 72[1] 69 161 122 1b 1 204a[0] 204b[0] 54"></route></vehicle>
    <vehicle depart="55" departPos="0" departLane="best" arrivalPos="-1" type="private" id="Togliatti_3_39"><route edges="85 67 80 127 77[1][0] 77ab 77bc 21a 21b 103 14"></route></vehicle>
    <vehicle depart="55" departPos="0" departLane="best" arrivalPos="-1" type="private" id="Vittorio_Veneto_1_12"><route edges="224[0] 224[1] 181 18 17 71 86"></route></vehicle>
    <vehicle depart="56" departPos="0" departLane="best" arrivalPos="-1" type="private" id="Pepoli_10_33"><route edges="210 43[0] 43[1] 201 201c 204a[0] 204b[0] 204[1][0] 204[1][1]"></route></vehicle>
    <vehicle depart="56" departPos="0" departLane="best" arrivalPos="-1" type="private" id="Silvani_11_24"><route edges="203[0] 114"></route></vehicle>
    <vehicle depart="56" departPos="0" departLane="best" arrivalPos="-1" type="private" id="Togliatti_2_40"><route edges="85 67 80 127 77[1][0] 77[1][1]"></route></vehicle>
    <vehicle depart="56" departPos="0" departLane="best" arrivalPos="-1" type="private" id="XXI_Aprile_7_16"><route edges="8 9 211 45 206 32 40 41 160 61 58[0] 58[1] 66 117 209"></route></vehicle>
    <vehicle depart="57" departPos="0" departLane="best" arrivalPos="-1" type="private" id="Costa_50_22"><route edges="78[0] 56a m1 21b 103 16 37 36 40 41 160 61 58[0] 58[1] 200 60"></route></vehicle>
    <vehicle depart="58" departPos="0" departLane="best" arrivalPos="-1" type="private" id="Pepoli_10_34"><route edges="210 43[0] 43[1] 201 201c 204a[0] 204b[0] 204[1][0] 204[1][1]"></route></vehicle>
    <vehicle depart="58" departPos="0" departLane="best" arrivalPos="-1" type="ignoring" id="Silvani_3_25"><route edges="203[0] 203[1] 203[1]b 202 34 113 118 65 57[0] 57[1] 62 159 42 39 35 38 15 14"></route></vehicle>
    <vehicle depart="58" departPos="0" departLane="best" arrivalPos="-1" type="private" id="Togliatti_10_41"><route edges="85 72[0] 72[1] 69 161 122 1b 1 204a[0] 204b[0] 204[1][0] 204[1][1]"></route></vehicle>
    <vehicle depart="59" departPos="0" departLane="best" arrivalPos="-1" type="private" id="Togliatti_10_42"><route edges="85 72[0] 72[1] 69 161 122 1b 1 204a[0] 204b[0] 204[1][0] 204[1][1]"></route></vehicle>
    <vehicle depart="59" departPos="0" departLane="best" arrivalPos="-1" type="private" id="Vittorio_Veneto_1_13"><route edges="224[0] 224[1] 181 18 17 71 86"></route></vehicle>
    <vehicle depart="60" departPos="0" departLane="best" arrivalPos="-1" type="private" id="Costa_12_23"><route edges="78[0] 56a 56b 77bc 77cd 53cd 53[0] 53[1][0] 79 68 11 84 180 136"></route></vehicle>
    <vehicle depart="60" departPos="0" departLane="best" arrivalPos="-1" type="private" id="Pepoli_11_35"><route edges="210 43[0] 43[1] 201 201c 204a[0] 124 114"></route></vehicle>
    <vehicle depart="60" departPos="0" departLane="best" arrivalPos="-1" type="private" id="XXI_Aprile_1_17"><route edges="13 104 24 22 59 53cd 53[0] 53[1][0] 79 68 11 86"></route></vehicle>
    <vehicle depart="61" departPos="0" departLane="best" arrivalPos="-1" type="private" id="Pepoli_11_36"><route edges="210 43[0] 43[1] 201 201c 204a[0] 124 114"></route></vehicle>
    <vehicle depart="61" departPos="0" departLane="best" arrivalPos="-1" type="private" id="Silvani_7_26"><route edges="203[0] 203[1] 203[1]b 202 34 113 209"></route></vehicle>
    <vehicle depart="62" departPos="0" departLane="best" arrivalPos="-1" type="private" id="Costa_12_24"><route edges="78[0] 56a 56b 77bc 77cd 53cd 53[0] 53[1][0] 79 68 11 84 180 136"></route></vehicle>
    <vehicle depart="63" departPos="0" departLane="best" arrivalPos="-1" type="private" id="Pepoli_11_37"><route edges="210 43[0] 43[1] 201 201c 204a[0] 124 114"></route></vehicle>
    <vehicle depart="63" departPos="0" departLane="best" arrivalPos="-1" type="private" id="Silvani_11_27"><route edges="203[0] 114"></route></vehicle>
    <vehicle depart="64" departPos="0" departLane="best" arrivalPos="-1" type="ignoring" id="Audinot_12_3"><route edges="131 65 57[0] 57[1] 62 159 42 39 35 38 15 24 22 59 53cd 53[0] 53[1][0] 79 68 11 84 180 136"></route></vehicle>
    <vehicle depart="64" departPos="0" departLane="best" arrivalPos="-1" type="private" id="Togliatti_2_45"><route edges="85 67 80 127 77[1][0] 77[1][1]"></route></vehicle>
    <vehicle depart="64" departPos="0" departLane="best" arrivalPos="-1" type="private" id="Vittorio_Veneto_1_14"><route edges="224[0] 224[1] 181 18 17 71 86"></route></vehicle>
    <vehicle depart="64" departPos="0" departLane="best" arrivalPos="-1" type="private" id="XXI_Aprile_1_18"><route edges="13 104 24 22 59 53cd 53[0] 53[1][0] 79 68 11 86"></route></vehicle>
    <vehicle depart="65" departPos="0" departLane="best" arrivalPos="-1" type="private" id="Costa_200_25"><route edges="78[0] 56a 56b 77bc 77cd 53cd 53[0] 78[1][1] 189[0] 189[1][0]+20000 189[1][1] 188 87[0] 20001+87[1][0] 87[1][1] m90 89[0] 20002+89[1][0] 89[1][1] 91 186 109[0] 109[1][0]+20003 109[1][1] 116 46 201 201c 204a[0] 204b[0] 204[1][0] 204[1][1]"></route></vehicle>