<?xml version="1.0" encoding="UTF-8"?>

<!-- generated on 11/23/12 10:13:36 by SUMO netconvert Version dev-SVN-rUNKNOWN
<?xml version="1.0" encoding="UTF-8"?>

<configuration xmlns:xsi="http://www.w3.org/2001/XMLSchema-instance" xsi:noNamespaceSchemaLocation="https://sumo-sim.org/xsd/netconvertConfiguration.xsd">

    <input>
        <node-files value="data/input_nodes.nod.xml"/>
        <edge-files value="data/input_edges.edg.xml"/>
        <connection-files value="data/input_connections.con.xml"/>
    </input>

    <output>
        <output-file value="data/acosta_buslanes.net.xml"/>
    </output>

    <processing>
        <roundabouts.guess value="true"/>
        <check-lane-foes.all value="true"/>
    </processing>

    <report>
        <verbose value="true"/>
    </report>

</configuration>
-->

<net version="0.13" xmlns:xsi="http://www.w3.org/2001/XMLSchema-instance" xsi:noNamespaceSchemaLocation="https://sumo-sim.org/xsd/net_file.xsd">

    <location netOffset="0.00,-207.06" convBoundary="0.00,0.00,1817.58,1350.19" origBoundary="0.00,0.00,1817.58,1557.25" projParameter="!"/>

    <edge id=":0_0" function="internal">
        <lane id=":0_0_0" index="0" speed="13.89" length="9.87" shape="1406.01,812.98 1414.85,811.05"/>
        <lane id=":0_0_1" index="1" speed="13.89" length="9.87" shape="1406.09,816.28 1409.20,815.79 1411.30,814.89 1413.38,814.20 1416.43,814.33"/>
    </edge>
    <edge id=":0_2" function="internal">
        <lane id=":0_2_0" index="0" speed="13.89" length="10.44" shape="1406.09,816.28 1409.33,816.29 1411.55,816.53 1413.73,817.08 1416.85,818.01"/>
        <lane id=":0_2_1" index="1" speed="13.89" length="10.44" shape="1406.17,819.58 1415.94,821.18"/>
    </edge>
    <edge id=":1_0" function="internal">
        <lane id=":1_0_0" index="0" speed="13.89" length="9.53" shape="1503.45,842.65 1501.54,851.90"/>
        <lane id=":1_0_1" index="1" speed="13.89" length="9.53" shape="1500.25,841.82 1498.32,851.15"/>
        <lane id=":1_0_2" index="2" speed="13.89" length="9.53" shape="1497.06,840.99 1495.11,850.40"/>
    </edge>
    <edge id=":1_3" function="internal">
        <lane id=":1_3_0" index="0" speed="13.89" length="3.92" shape="1493.13,842.93 1496.32,844.55"/>
        <lane id=":1_3_1" index="1" speed="13.89" length="3.92" shape="1491.84,845.97 1494.87,847.41 1495.63,847.89"/>
    </edge>
    <edge id=":1_5" function="internal">
        <lane id=":1_5_0" index="0" speed="13.89" length="9.67" shape="1496.32,844.55 1497.24,845.01 1500.01,847.20 1501.44,849.50 1501.54,851.90"/>
    </edge>
    <edge id=":1_6" function="internal">
        <lane id=":1_6_0" index="0" speed="13.89" length="4.45" shape="1495.63,847.89 1496.96,848.75 1498.11,850.00 1498.32,851.15"/>
    </edge>
    <edge id=":10_0" function="internal">
        <lane id=":10_0_0" index="0" speed="13.89" length="3.97" shape="611.16,930.85 606.95,929.37"/>
        <lane id=":10_0_1" index="1" speed="13.89" length="3.97" shape="611.16,930.85 610.00,928.10"/>
        <lane id=":10_0_2" index="2" speed="13.89" length="3.97" shape="611.16,930.85 613.04,926.83"/>
    </edge>
    <edge id=":11_0" function="internal">
        <lane id=":11_0_0" index="0" speed="13.89" length="3.42" shape="303.18,170.74 305.77,172.91"/>
        <lane id=":11_0_1" index="1" speed="13.89" length="3.42" shape="303.18,170.74 302.73,174.18"/>
    </edge>
    <edge id=":114-end_0" function="internal">
        <lane id=":114-end_0_0" index="0" allow="bus" speed="13.89" length="4.82" shape="781.38,1351.71 779.92,1351.43 779.23,1350.82 779.29,1349.90 780.12,1348.67"/>
    </edge>
    <edge id=":12_0" function="internal">
        <lane id=":12_0_0" index="0" speed="13.89" length="7.85" shape="321.91,236.17 320.70,233.70 319.47,231.94 318.22,230.89 316.95,230.54"/>
    </edge>
    <edge id=":12_1" function="internal">
        <lane id=":12_1_0" index="0" speed="13.89" length="9.34" shape="321.91,236.17 320.61,226.92"/>
    </edge>
    <edge id=":12_2" function="internal">
        <lane id=":12_2_0" index="0" speed="13.89" length="4.96" shape="324.95,234.87 323.84,230.88 324.03,230.09"/>
    </edge>
    <edge id=":12_9" function="internal">
        <lane id=":12_9_0" index="0" speed="13.89" length="8.81" shape="324.03,230.09 324.48,228.22 326.87,226.90 331.02,226.92"/>
    </edge>
    <edge id=":12_3" function="internal">
        <lane id=":12_3_0" index="0" speed="13.89" length="5.87" shape="330.57,230.19 328.81,230.18 327.78,230.74 327.51,231.87 327.99,233.58"/>
    </edge>
    <edge id=":12_4" function="internal">
        <lane id=":12_4_0" index="0" speed="13.89" length="13.65" shape="330.57,230.19 327.06,229.95 323.78,230.10 320.49,230.38 316.95,230.54"/>
    </edge>
    <edge id=":12_5" function="internal">
        <lane id=":12_5_0" index="0" speed="13.89" length="4.66" shape="330.57,230.19 326.54,229.52 325.99,229.38"/>
    </edge>
    <edge id=":12_10" function="internal">
        <lane id=":12_10_0" index="0" speed="13.89" length="6.04" shape="325.99,229.38 323.53,228.75 321.56,227.88 320.61,226.92"/>
    </edge>
    <edge id=":12_6" function="internal">
        <lane id=":12_6_0" index="0" speed="13.89" length="4.98" shape="327.16,224.16 327.77,225.22 328.62,226.03 329.70,226.60 331.02,226.92"/>
    </edge>
    <edge id=":12_7" function="internal">
        <lane id=":12_7_0" index="0" speed="13.89" length="9.01" shape="324.12,225.44 327.99,233.58"/>
    </edge>
    <edge id=":12_8" function="internal">
        <lane id=":12_8_0" index="0" speed="13.89" length="6.64" shape="324.12,225.44 324.46,227.66 323.38,229.24 321.07,230.13"/>
    </edge>
    <edge id=":12_11" function="internal">
        <lane id=":12_11_0" index="0" speed="13.89" length="4.15" shape="321.07,230.13 320.87,230.21 316.95,230.54"/>
    </edge>
    <edge id=":13_0" function="internal">
        <lane id=":13_0_0" index="0" speed="13.89" length="5.55" shape="435.23,244.54 433.61,244.56 432.59,245.10 432.17,246.18 432.36,247.79"/>
    </edge>
    <edge id=":13_1" function="internal">
        <lane id=":13_1_0" index="0" speed="13.89" length="9.31" shape="435.23,244.54 426.00,243.31"/>
    </edge>
    <edge id=":13_2" function="internal">
        <lane id=":13_2_0" index="0" speed="13.89" length="6.11" shape="435.23,244.54 433.44,243.87 431.85,242.35 430.83,240.63"/>
    </edge>
    <edge id=":13_4" function="internal">
        <lane id=":13_4_0" index="0" speed="13.89" length="4.19" shape="430.83,240.63 430.45,239.98 429.24,236.75"/>
    </edge>
    <edge id=":13_3" function="internal">
        <lane id=":13_3_0" index="0" speed="13.89" length="9.29" shape="426.45,240.04 435.65,241.27"/>
    </edge>
    <edge id=":133-begin_0" function="internal">
        <lane id=":133-begin_0_0" index="0" speed="13.89" length="4.82" shape="1759.03,528.72 1760.43,529.21 1761.04,529.91 1760.84,530.81 1759.85,531.92"/>
    </edge>
    <edge id=":135-begin_0" function="internal">
        <lane id=":135-begin_0_0" index="0" speed="13.89" length="4.82" shape="929.40,1098.11 929.12,1099.57 928.52,1100.27 927.60,1100.21 926.36,1099.39"/>
    </edge>
    <edge id=":137-begin_0" function="internal">
        <lane id=":137-begin_0_0" index="0" speed="13.89" length="4.82" shape="457.44,1074.97 455.98,1074.67 455.28,1074.07 455.35,1073.15 456.18,1071.91"/>
    </edge>
    <edge id=":15_0" function="internal">
        <lane id=":15_0_0" index="0" speed="13.89" length="6.35" shape="804.81,817.06 804.10,815.91 803.19,815.24 802.08,815.07 800.76,815.38"/>
        <lane id=":15_0_1" index="1" speed="13.89" length="6.35" shape="804.81,817.06 803.53,814.58 802.23,812.96 800.90,812.21 799.55,812.31"/>
    </edge>
    <edge id=":15_2" function="internal">
        <lane id=":15_2_0" index="0" speed="13.89" length="12.26" shape="807.84,815.74 806.02,811.03 805.25,807.60 805.53,805.48 806.85,804.65"/>
    </edge>
    <edge id=":15_3" function="internal">
        <lane id=":15_3_0" index="0" speed="13.89" length="5.78" shape="802.70,797.99 803.11,799.59 803.89,800.69 805.03,801.28 806.53,801.37"/>
    </edge>
    <edge id=":15_4" function="internal">
        <lane id=":15_4_0" index="0" speed="13.89" length="3.70" shape="802.70,797.99 802.96,801.68"/>
    </edge>
    <edge id=":15_7" function="internal">
        <lane id=":15_7_0" index="0" speed="13.89" length="11.82" shape="802.96,801.68 803.09,803.56 802.69,807.80 801.51,810.72 799.55,812.31"/>
    </edge>
    <edge id=":15_5" function="internal">
        <lane id=":15_5_0" index="0" speed="13.89" length="10.25" shape="796.07,803.51 799.05,802.40 801.16,801.88 803.35,801.64 806.53,801.37"/>
        <lane id=":15_5_1" index="1" speed="13.89" length="10.25" shape="797.28,806.58 806.85,804.65"/>
    </edge>
    <edge id=":16_0" function="internal">
        <lane id=":16_0_0" index="0" speed="13.89" length="4.08" shape="663.19,855.05 660.50,858.94"/>
        <lane id=":16_0_1" index="1" speed="13.89" length="4.08" shape="662.83,851.77 660.27,855.65"/>
        <lane id=":16_0_2" index="2" speed="13.89" length="4.08" shape="662.83,851.77 660.04,852.36"/>
    </edge>
    <edge id=":17_0" function="internal">
        <lane id=":17_0_0" index="0" speed="13.89" length="0.17" shape="817.59,846.02 817.44,846.09"/>
        <lane id=":17_0_1" index="1" speed="13.89" length="0.17" shape="820.60,844.67 820.45,844.74"/>
    </edge>
    <edge id=":18_0" function="internal">
        <lane id=":18_0_0" index="0" speed="13.89" length="7.92" shape="467.53,382.77 466.52,381.05 465.16,379.75 463.45,378.88 461.37,378.43"/>
    </edge>
    <edge id=":18_1" function="internal">
        <lane id=":18_1_0" index="0" speed="13.89" length="9.69" shape="467.53,382.77 466.53,379.60 466.68,377.42 467.97,376.23 470.39,376.04"/>
    </edge>
    <edge id=":18_2" function="internal">
        <lane id=":18_2_0" index="0" speed="13.89" length="8.74" shape="470.06,379.32 461.37,378.43"/>
    </edge>
    <edge id=":18_3" function="internal">
        <lane id=":18_3_0" index="0" speed="13.89" length="7.69" shape="464.54,371.86 465.27,373.50 466.48,374.75 468.19,375.59 470.39,376.04"/>
    </edge>
    <edge id=":18_4" function="internal">
        <lane id=":18_4_0" index="0" speed="13.89" length="9.04" shape="464.54,371.86 465.03,374.93 464.67,377.05 463.45,378.22 461.37,378.43"/>
    </edge>
    <edge id=":18_5" function="internal">
        <lane id=":18_5_0" index="0" speed="13.89" length="8.72" shape="461.71,375.15 470.39,376.04"/>
    </edge>
    <edge id=":19_0" function="internal">
        <lane id=":19_0_0" index="0" speed="13.89" length="10.33" shape="380.83,376.81 377.92,367.49"/>
        <lane id=":19_0_1" index="1" speed="13.89" length="10.33" shape="380.83,376.81 380.27,373.92 380.90,371.63 381.52,369.28 380.95,366.20"/>
    </edge>
    <edge id=":19_2" function="internal">
        <lane id=":19_2_0" index="0" speed="13.89" length="12.43" shape="380.83,376.81 379.56,372.27 380.53,369.21 383.74,367.65 384.67,367.64"/>
    </edge>
    <edge id=":19_7" function="internal">
        <lane id=":19_7_0" index="0" speed="13.89" length="4.52" shape="384.67,367.64 389.19,367.59"/>
    </edge>
    <edge id=":19_3" function="internal">
        <lane id=":19_3_0" index="0" speed="13.89" length="5.83" shape="388.85,370.87 387.10,370.92 386.10,371.52 385.85,372.65 386.35,374.33"/>
    </edge>
    <edge id=":19_4" function="internal">
        <lane id=":19_4_0" index="0" speed="13.89" length="11.71" shape="388.85,370.87 384.44,370.27 381.15,369.51 378.98,368.58 377.92,367.49"/>
    </edge>
    <edge id=":19_5" function="internal">
        <lane id=":19_5_0" index="0" speed="13.89" length="6.12" shape="383.99,364.90 384.67,365.91 385.77,366.70 387.27,367.26 389.19,367.59"/>
    </edge>
    <edge id=":19_6" function="internal">
        <lane id=":19_6_0" index="0" speed="13.89" length="9.72" shape="383.99,364.90 386.35,374.33"/>
    </edge>
    <edge id=":1b_0" function="internal">
        <lane id=":1b_0_0" index="0" speed="13.89" length="13.66" shape="1479.50,836.03 1483.32,837.44 1485.74,838.89 1488.10,840.49 1491.77,842.35"/>
        <lane id=":1b_0_1" index="1" speed="13.89" length="13.66" shape="1478.58,839.20 1482.29,840.58 1484.63,842.01 1486.92,843.58 1490.48,845.39"/>
    </edge>
    <edge id=":1b_2" function="internal">
        <lane id=":1b_2_0" index="0" speed="13.89" length="12.38" shape="1480.14,845.93 1481.03,842.33 1481.77,839.91 1482.54,837.49 1483.54,833.92"/>
        <lane id=":1b_2_1" index="1" speed="13.89" length="12.38" shape="1483.36,846.66 1484.25,843.09 1484.98,840.68 1485.74,838.28 1486.73,834.74"/>
        <lane id=":1b_2_2" index="2" speed="13.89" length="12.38" shape="1486.58,847.39 1487.46,843.85 1488.19,841.46 1488.95,839.08 1489.93,835.57"/>
    </edge>
    <edge id=":1c_0" function="internal">
        <lane id=":1c_0_0" index="0" speed="13.89" length="5.19" shape="1508.51,822.02 1508.39,823.39 1508.76,824.48 1509.63,825.30 1511.00,825.84"/>
    </edge>
    <edge id=":1c_1" function="internal">
        <lane id=":1c_1_0" index="0" speed="13.89" length="8.78" shape="1508.51,822.02 1506.57,830.62"/>
        <lane id=":1c_1_1" index="1" speed="13.89" length="8.78" shape="1505.31,821.22 1503.37,829.79"/>
        <lane id=":1c_1_2" index="2" speed="13.89" length="8.78" shape="1502.11,820.42 1500.18,828.96"/>
    </edge>
    <edge id=":1c_4" function="internal">
        <lane id=":1c_4_0" index="0" speed="13.89" length="13.58" shape="1497.48,825.54 1501.02,825.37 1504.30,825.20 1507.54,825.27 1511.00,825.84"/>
    </edge>
    <edge id=":2_0" function="internal">
        <lane id=":2_0_0" index="0" speed="13.89" length="3.44" shape="1436.05,814.72 1439.30,813.56"/>
        <lane id=":2_0_1" index="1" speed="13.89" length="3.44" shape="1435.43,817.96 1438.70,816.80"/>
        <lane id=":2_0_2" index="2" speed="13.89" length="3.44" shape="1435.43,817.96 1438.10,820.05"/>
    </edge>
    <edge id=":204c_0" function="internal">
        <lane id=":204c_0_0" index="0" speed="13.89" length="13.46" shape="1459.59,1039.79 1460.72,1043.37 1461.92,1045.67 1463.40,1047.86 1465.39,1051.10"/>
        <lane id=":204c_0_1" index="1" speed="13.89" length="13.46" shape="1459.59,1039.79 1460.28,1043.70 1460.45,1046.48 1460.92,1049.15 1462.51,1052.71"/>
        <lane id=":204c_0_2" index="2" speed="13.89" length="13.46" shape="1456.39,1040.59 1457.14,1044.75 1457.37,1047.71 1457.92,1050.53 1459.63,1054.31"/>
    </edge>
    <edge id=":204c_3" function="internal">
        <lane id=":204c_3_0" index="0" speed="13.89" length="12.31" shape="1456.39,1040.59 1457.19,1044.86 1457.28,1048.51 1456.65,1051.53 1455.31,1053.94"/>
        <lane id=":204c_3_1" index="1" speed="13.89" length="12.31" shape="1453.19,1041.40 1453.88,1044.89 1454.04,1047.80 1453.66,1050.12 1452.75,1051.87"/>
    </edge>
    <edge id=":20a_0" function="internal">
        <lane id=":20a_0_0" index="0" speed="13.89" length="5.41" shape="436.00,540.37 435.78,538.86 435.27,537.63 434.46,536.67 433.35,535.99"/>
    </edge>
    <edge id=":20a_1" function="internal">
        <lane id=":20a_1_0" index="0" speed="13.89" length="4.95" shape="436.00,540.37 437.51,534.66"/>
        <lane id=":20a_1_1" index="1" speed="13.89" length="4.95" shape="439.30,540.22 440.34,536.35"/>
    </edge>
    <edge id=":20b_0" function="internal">
        <lane id=":20b_0_0" index="0" speed="13.89" length="7.91" shape="438.30,525.65 440.31,526.29 442.02,526.59 443.44,526.54 444.56,526.15"/>
        <lane id=":20b_0_1" index="1" speed="13.89" length="7.91" shape="437.13,528.74 439.87,529.57 442.29,529.90 444.41,529.71 446.22,529.00"/>
    </edge>
    <edge id=":20b_2" function="internal">
        <lane id=":20b_2_0" index="0" speed="13.89" length="8.18" shape="438.58,532.88 444.56,526.15"/>
        <lane id=":20b_2_1" index="1" speed="13.89" length="8.18" shape="441.41,534.57 446.22,529.00"/>
    </edge>
    <edge id=":20c_0" function="internal">
        <lane id=":20c_0_0" index="0" speed="13.89" length="5.03" shape="447.86,524.24 448.95,523.38 449.49,522.39 449.48,521.26 448.93,519.99"/>
    </edge>
    <edge id=":20c_1" function="internal">
        <lane id=":20c_1_0" index="0" speed="13.89" length="3.22" shape="447.86,524.24 450.99,522.65"/>
        <lane id=":20c_1_1" index="1" speed="13.89" length="3.22" shape="449.51,527.10 452.11,525.76"/>
    </edge>
    <edge id=":21_0" function="internal">
        <lane id=":21_0_0" index="0" speed="13.89" length="3.36" shape="419.90,448.99 422.63,450.89"/>
        <lane id=":21_0_1" index="1" speed="13.89" length="3.36" shape="419.90,448.99 419.67,452.36"/>
    </edge>
    <edge id=":21m_0" function="internal">
        <lane id=":21m_0_0" index="0" speed="13.89" length="6.25" shape="436.51,499.77 433.55,494.27"/>
    </edge>
    <edge id=":21m_1" function="internal">
        <lane id=":21m_1_0" index="0" speed="13.89" length="5.72" shape="432.18,499.56 433.14,498.08 433.68,496.71 433.82,495.44 433.55,494.27"/>
    </edge>
    <edge id=":23_0" function="internal">
        <lane id=":23_0_0" index="0" speed="13.89" length="10.58" shape="526.35,726.72 524.97,723.92 523.32,721.77 521.42,720.27 519.25,719.41"/>
    </edge>
    <edge id=":23_1" function="internal">
        <lane id=":23_1_0" index="0" speed="13.89" length="14.20" shape="529.41,725.47 527.52,721.39 525.80,718.48 524.21,715.94 522.72,712.97"/>
    </edge>
    <edge id=":23_2" function="internal">
        <lane id=":23_2_0" index="0" speed="13.89" length="14.48" shape="527.47,710.97 529.26,714.12 531.67,716.64 534.68,718.51 538.30,719.74"/>
    </edge>
    <edge id=":23_3" function="internal">
        <lane id=":23_3_0" index="0" speed="13.89" length="14.53" shape="527.47,710.97 529.18,713.84 531.23,716.17 533.42,718.90 535.56,722.96"/>
    </edge>
    <edge id=":23_4" function="internal">
        <lane id=":23_4_0" index="0" speed="13.89" length="9.82" shape="527.47,710.97 528.81,715.81 527.88,718.83 526.35,719.41"/>
    </edge>
    <edge id=":23_8" function="internal">
        <lane id=":23_8_0" index="0" speed="13.89" length="7.25" shape="526.35,719.41 524.70,720.03 519.25,719.41"/>
    </edge>
    <edge id=":23_5" function="internal">
        <lane id=":23_5_0" index="0" speed="13.89" length="6.09" shape="520.00,716.20 521.86,716.39 522.94,715.92 523.22,714.78 522.72,712.97"/>
    </edge>
    <edge id=":23_6" function="internal">
        <lane id=":23_6_0" index="0" speed="13.89" length="18.64" shape="520.00,716.20 524.23,717.07 529.15,717.97 534.07,718.87 538.30,719.74"/>
    </edge>
    <edge id=":23_7" function="internal">
        <lane id=":23_7_0" index="0" speed="13.89" length="15.38" shape="520.00,716.20 524.61,717.59 528.23,719.39 530.86,721.59 532.51,724.20"/>
    </edge>
    <edge id=":24_0" function="internal">
        <lane id=":24_0_0" index="0" speed="13.89" length="7.61" shape="689.56,56.93 687.22,49.69"/>
    </edge>
    <edge id=":24_1" function="internal">
        <lane id=":24_1_0" index="0" speed="13.89" length="6.97" shape="689.56,56.93 689.04,54.72 689.39,53.55 690.60,53.43 692.67,54.34"/>
    </edge>
    <edge id=":25_0" function="internal">
        <lane id=":25_0_0" index="0" speed="13.89" length="5.06" shape="641.48,91.95 642.77,91.43 643.56,90.62 643.86,89.52 643.65,88.14"/>
    </edge>
    <edge id=":25_1" function="internal">
        <lane id=":25_1_0" index="0" speed="13.89" length="5.07" shape="641.48,91.95 642.89,91.79 644.04,92.07 644.93,92.79 645.56,93.96"/>
    </edge>
    <edge id=":25-begin_0" function="internal">
        <lane id=":25-begin_0_0" index="0" speed="13.89" length="4.82" shape="179.55,670.26 178.43,669.28 178.13,668.40 178.65,667.64 179.99,666.99"/>
    </edge>
    <edge id=":26_0" function="internal">
        <lane id=":26_0_0" index="0" speed="13.89" length="14.20" shape="1605.25,571.91 1602.41,573.69 1600.33,576.48 1597.79,579.33 1593.56,581.27"/>
        <lane id=":26_0_1" index="1" allow="bus" speed="13.89" length="14.20" shape="1605.25,571.91 1602.22,573.20 1599.78,574.91 1596.97,576.65 1592.87,578.04"/>
        <lane id=":26_0_2" index="2" speed="13.89" length="14.20" shape="1605.25,571.91 1602.08,572.70 1599.35,573.31 1596.30,573.95 1592.18,574.81"/>
    </edge>
    <edge id=":26_3" function="internal">
        <lane id=":26_3_0" index="0" speed="13.89" length="13.24" shape="1591.50,571.61 1594.91,570.92 1597.98,570.26 1601.05,569.56 1604.42,568.72"/>
    </edge>
    <edge id=":26_4" function="internal">
        <lane id=":26_4_0" index="0" speed="13.89" length="5.63" shape="1596.59,584.33 1596.73,582.68 1596.27,581.62 1595.21,581.15 1593.56,581.27"/>
    </edge>
    <edge id=":26_5" function="internal">
        <lane id=":26_5_0" index="0" speed="13.89" length="18.02" shape="1596.59,584.33 1598.30,577.95 1600.17,573.22 1602.21,570.14 1604.42,568.72"/>
    </edge>
    <edge id=":26_6" function="internal">
        <lane id=":26_6_0" index="0" speed="13.89" length="5.15" shape="1596.59,584.33 1597.74,583.24 1598.70,583.00 1599.46,583.62 1600.03,585.11"/>
    </edge>
    <edge id=":27_0" function="internal">
        <lane id=":27_0_0" index="0" speed="13.89" length="9.78" shape="1577.91,584.60 1574.40,585.49 1571.80,586.47 1570.11,587.54 1569.34,588.69"/>
    </edge>
    <edge id=":27_1" function="internal">
        <lane id=":27_1_0" index="0" allow="bus" speed="13.89" length="33.08" shape="1577.26,581.37 1566.73,581.65 1557.52,579.28 1550.13,576.49 1545.09,575.47"/>
    </edge>
    <edge id=":27_2" function="internal">
        <lane id=":27_2_0" index="0" speed="13.89" length="4.99" shape="1576.60,578.13 1571.64,578.61"/>
    </edge>
    <edge id=":27_14" function="internal">
        <lane id=":27_14_0" index="0" speed="13.89" length="26.05" shape="1571.64,578.61 1566.65,579.09 1560.23,576.96 1557.36,571.75 1558.02,563.45"/>
    </edge>
    <edge id=":27_3" function="internal">
        <lane id=":27_3_0" index="0" speed="13.89" length="9.12" shape="1573.94,567.38 1573.34,570.90 1573.46,573.30 1574.33,574.58 1575.92,574.75"/>
    </edge>
    <edge id=":27_4" function="internal">
        <lane id=":27_4_0" index="0" speed="13.89" length="21.75" shape="1573.94,567.38 1572.55,573.70 1571.75,578.06 1570.89,582.41 1569.34,588.69"/>
        <lane id=":27_4_1" index="1" speed="13.89" length="21.75" shape="1570.74,566.59 1569.35,572.89 1568.55,577.24 1567.69,581.58 1566.15,587.84"/>
        <lane id=":27_4_2" index="2" speed="13.89" length="21.75" shape="1567.53,565.80 1566.15,572.09 1565.35,576.42 1564.50,580.74 1562.96,586.99"/>
    </edge>
    <edge id=":27_7" function="internal">
        <lane id=":27_7_0" index="0" allow="bus" speed="13.89" length="7.67" shape="1567.53,565.80 1565.58,568.71 1561.99,570.82"/>
    </edge>
    <edge id=":27_15" function="internal">
        <lane id=":27_15_0" index="0" speed="13.89" length="17.59" shape="1561.99,570.82 1561.19,571.29 1554.36,573.55 1545.09,575.47"/>
    </edge>
    <edge id=":27_8" function="internal">
        <lane id=":27_8_0" index="0" speed="13.89" length="9.33" shape="1543.43,565.58 1546.78,564.88 1549.26,564.03 1550.88,563.02 1551.62,561.86"/>
    </edge>
    <edge id=":27_9" function="internal">
        <lane id=":27_9_0" index="0" speed="13.89" length="32.79" shape="1543.97,568.83 1554.52,568.88 1563.66,571.26 1570.94,573.90 1575.92,574.75"/>
    </edge>
    <edge id=":27_10" function="internal">
        <lane id=":27_10_0" index="0" speed="13.89" length="4.92" shape="1544.52,572.09 1549.43,571.77"/>
    </edge>
    <edge id=":27_16" function="internal">
        <lane id=":27_16_0" index="0" speed="13.89" length="33.13" shape="1549.43,571.77 1557.53,571.26 1566.01,573.74 1569.94,579.56 1569.34,588.69"/>
    </edge>
    <edge id=":27_11" function="internal">
        <lane id=":27_11_0" index="0" speed="13.89" length="21.42" shape="1546.95,582.73 1548.45,576.56 1549.32,572.31 1550.18,568.04 1551.62,561.86"/>
        <lane id=":27_11_1" index="1" speed="13.89" length="21.42" shape="1550.14,583.58 1551.64,577.39 1552.52,573.13 1553.38,568.85 1554.82,562.65"/>
    </edge>
    <edge id=":27_13" function="internal">
        <lane id=":27_13_0" index="0" speed="13.89" length="7.59" shape="1553.33,584.43 1555.26,581.80 1559.03,579.67"/>
    </edge>
    <edge id=":27_17" function="internal">
        <lane id=":27_17_0" index="0" speed="13.89" length="17.64" shape="1559.03,579.67 1559.68,579.30 1566.56,576.96 1575.92,574.75"/>
    </edge>
    <edge id=":28_0" function="internal">
        <lane id=":28_0_0" index="0" speed="13.89" length="6.27" shape="701.40,239.84 695.33,241.37"/>
    </edge>
    <edge id=":28_1" function="internal">
        <lane id=":28_1_0" index="0" speed="13.89" length="5.43" shape="696.21,234.29 696.93,235.72 697.86,236.60 699.00,236.93 700.35,236.71"/>
    </edge>
    <edge id=":28_2" function="internal">
        <lane id=":28_2_0" index="0" speed="13.89" length="7.92" shape="696.21,234.29 696.97,237.00 697.08,239.09 696.53,240.54 695.33,241.37"/>
    </edge>
    <edge id=":28_3" function="internal">
        <lane id=":28_3_0" index="0" speed="13.89" length="6.24" shape="694.29,238.23 700.35,236.71"/>
    </edge>
    <edge id=":29_0" function="internal">
        <lane id=":29_0_0" index="0" speed="13.89" length="0.10" shape="1528.38,654.77 1528.33,654.75"/>
        <lane id=":29_0_1" index="1" speed="13.89" length="0.10" shape="1531.58,655.59 1531.52,655.58"/>
        <lane id=":29_0_2" index="2" speed="13.89" length="0.10" shape="1534.77,656.42 1534.71,656.41"/>
    </edge>
    <edge id=":3_0" function="internal">
        <lane id=":3_0_0" index="0" speed="13.89" length="10.22" shape="1482.93,821.57 1484.41,821.66 1485.57,821.30 1486.42,820.52 1486.96,819.29"/>
        <lane id=":3_0_1" index="1" speed="13.89" length="10.22" shape="1482.33,824.82 1485.17,824.96 1487.42,824.23 1489.08,822.62 1490.15,820.14"/>
        <lane id=":3_0_2" index="2" speed="13.89" length="10.22" shape="1481.73,828.06 1485.94,828.26 1489.27,827.15 1491.74,824.72 1493.34,820.99"/>
    </edge>
    <edge id=":3_3" function="internal">
        <lane id=":3_3_0" index="0" speed="13.89" length="14.39" shape="1481.73,828.06 1486.17,828.23 1489.48,827.33 1492.42,826.18 1495.73,825.57"/>
    </edge>
    <edge id=":3_4" function="internal">
        <lane id=":3_4_0" index="0" speed="13.89" length="12.77" shape="1484.09,831.76 1484.99,828.07 1485.51,825.52 1486.05,822.98 1486.96,819.29"/>
        <lane id=":3_4_1" index="1" speed="13.89" length="12.77" shape="1487.29,832.59 1488.18,828.90 1488.71,826.36 1489.24,823.82 1490.15,820.14"/>
        <lane id=":3_4_2" index="2" speed="13.89" length="12.77" shape="1490.48,833.41 1491.37,829.73 1491.90,827.20 1492.43,824.66 1493.34,820.99"/>
    </edge>
    <edge id=":30_0" function="internal">
        <lane id=":30_0_0" index="0" speed="13.89" length="6.80" shape="573.96,261.21 567.18,261.79"/>
    </edge>
    <edge id=":30_1" function="internal">
        <lane id=":30_1_0" index="0" speed="13.89" length="4.95" shape="570.82,254.87 571.06,256.20 571.67,257.15 572.64,257.72 573.97,257.91"/>
    </edge>
    <edge id=":30_2" function="internal">
        <lane id=":30_2_0" index="0" speed="13.89" length="8.96" shape="570.82,254.87 570.70,258.09 570.05,260.32 568.88,261.55 567.18,261.79"/>
    </edge>
    <edge id=":30_3" function="internal">
        <lane id=":30_3_0" index="0" speed="13.89" length="6.39" shape="567.61,258.52 573.97,257.91"/>
    </edge>
    <edge id=":30_4" function="internal">
        <lane id=":30_4_0" index="0" speed="13.89" length="5.14" shape="570.26,265.19 570.13,263.86 569.57,262.85 568.59,262.16 567.18,261.79"/>
    </edge>
    <edge id=":30_5" function="internal">
        <lane id=":30_5_0" index="0" speed="13.89" length="8.91" shape="570.26,265.19 570.63,262.00 571.38,259.73 572.49,258.36 573.97,257.91"/>
    </edge>
    <edge id=":31_0" function="internal">
        <lane id=":31_0_0" index="0" speed="13.89" length="5.04" shape="750.95,223.16 749.72,223.75 748.97,224.60 748.71,225.72 748.92,227.09"/>
    </edge>
    <edge id=":31_1" function="internal">
        <lane id=":31_1_0" index="0" speed="13.89" length="6.39" shape="750.95,223.16 744.87,225.14"/>
    </edge>
    <edge id=":31_2" function="internal">
        <lane id=":31_2_0" index="0" speed="13.89" length="5.01" shape="743.82,222.01 745.04,221.39 745.77,220.53 746.01,219.42 745.74,218.07"/>
    </edge>
    <edge id=":31_3" function="internal">
        <lane id=":31_3_0" index="0" speed="13.89" length="6.47" shape="743.82,222.01 749.97,220.01"/>
    </edge>
    <edge id=":31_4" function="internal">
        <lane id=":31_4_0" index="0" speed="13.89" length="4.91" shape="743.82,222.01 745.35,221.92 746.71,222.73 747.73,224.21"/>
    </edge>
    <edge id=":31_5" function="internal">
        <lane id=":31_5_0" index="0" speed="13.89" length="3.13" shape="747.73,224.21 747.90,224.46 748.92,227.09"/>
    </edge>
    <edge id=":32_0" function="internal">
        <lane id=":32_0_0" index="0" speed="13.89" length="5.00" shape="795.18,212.58 794.57,211.35 793.72,210.60 792.62,210.34 791.27,210.55"/>
    </edge>
    <edge id=":32_1" function="internal">
        <lane id=":32_1_0" index="0" speed="13.89" length="8.14" shape="795.18,212.58 794.51,209.85 794.51,207.75 795.18,206.26 796.52,205.40"/>
    </edge>
    <edge id=":32_2" function="internal">
        <lane id=":32_2_0" index="0" speed="13.89" length="6.60" shape="797.56,208.53 791.27,210.55"/>
    </edge>
    <edge id=":32_3" function="internal">
        <lane id=":32_3_0" index="0" speed="13.89" length="5.03" shape="792.64,203.37 793.22,204.63 794.06,205.38 795.16,205.64 796.52,205.40"/>
    </edge>
    <edge id=":32_4" function="internal">
        <lane id=":32_4_0" index="0" speed="13.89" length="8.10" shape="792.64,203.37 793.24,206.14 793.22,208.26 792.56,209.73 791.27,210.55"/>
    </edge>
    <edge id=":32_5" function="internal">
        <lane id=":32_5_0" index="0" speed="13.89" length="6.55" shape="790.29,207.40 796.52,205.40"/>
    </edge>
    <edge id=":33_0" function="internal">