<?xml version="1.0" encoding="UTF-8"?>

<!-- generated on Thu Apr 18 00:13:39 2019 by Eclipse SUMO netconvert Version v1_2_0+0017-2a947141e5
This data file and the accompanying materials
are made available under the terms of the Eclipse Public License v2.0
which accompanies this distribution, and is available at
http://www.eclipse.org/legal/epl-v20.html
SPDX-License-Identifier: EPL-2.0
<configuration xmlns:xsi="http://www.w3.org/2001/XMLSchema-instance" xsi:noNamespaceSchemaLocation="http://sumo.dlr.de/xsd/netconvertConfiguration.xsd">

    <input>
        <node-files value="input_nodes.nod.xml"/>
        <edge-files value="input_edges.edg.xml"/>
    </input>

    <output>
        <write-license value="true"/>
        <output-file value="net.net.xml"/>
        <plain-output-prefix value="plain"/>
    </output>

    <processing>
        <plain.extend-edge-shape value="true"/>
    </processing>

</configuration>
-->

<edges version="1.1" xmlns:xsi="http://www.w3.org/2001/XMLSchema-instance" xsi:noNamespaceSchemaLocation="http://sumo.dlr.de/xsd/edges_file.xsd">
    <edge id="1" from="dl" to="dr" priority="-1" numLanes="1" speed="13.89" spreadType="center"/>
    <edge id="2" from="dr" to="tr" priority="-1" numLanes="1" speed="13.89" shape="1295.49,0.00 1312.08,1.45 1328.15,5.76 1343.24,12.79 1356.87,22.34 1368.64,34.11 1378.19,47.75 1385.23,62.83 1389.54,78.91 1390.99,95.49 1389.54,112.08 1385.23,128.15 1378.19,143.24 1368.64,156.87 1356.87,168.64 1343.24,178.19 1328.15,185.23 1312.08,189.54 1295.49,190.99" spreadType="center"/>
    <edge id="3" from="tr" to="tl" priority="-1" numLanes="1" speed="13.89" spreadType="center"/>
    <edge id="4" from="tl" to="dl" priority="-1" numLanes="1" speed="13.89" shape="95.49,190.99 78.91,189.54 62.83,185.23 47.75,178.19 34.11,168.64 22.34,156.87 12.79,143.24 5.76,128.15 1.45,112.08 0.00,95.49 1.45,78.91 5.76,62.83 12.79,47.75 22.34,34.11 34.11,22.34 47.75,12.79 62.83,5.76 78.91,1.45 95.49,0.00" spreadType="center"/>
</edges>
