<?xml version="1.0" encoding="UTF-8"?>

<!-- generated on Tue Apr 13 15:50:46 2021 by Eclipse SUMO netconvert Version 1.7.0
<configuration xmlns:xsi="http://www.w3.org/2001/XMLSchema-instance" xsi:noNamespaceSchemaLocation="http://sumo.dlr.de/xsd/netconvertConfiguration.xsd">

    <input>
        <type-files value="/usr/local/share/sumo/data/typemap/osmNetconvert.typ.xml"/>
        <osm-files value="osm_bbox.osm.xml"/>
    </input>

    <output>
        <output-file value="osm.net.xml"/>
        <output.street-names value="true"/>
        <output.original-names value="true"/>
    </output>

    <projection>
        <proj.utm value="true"/>
    </projection>

    <processing>
        <geometry.remove value="true"/>
        <roundabouts.guess value="true"/>
        <lefthand value="true"/>
    </processing>

    <tls_building>
        <tls.discard-simple value="true"/>
        <tls.join value="true"/>
        <tls.guess-signals value="true"/>
        <tls.default-type value="actuated"/>
    </tls_building>

    <ramp_guessing>
        <ramps.guess value="true"/>
    </ramp_guessing>

    <junctions>
        <junctions.join value="true"/>
        <junctions.corner-detail value="5"/>
    </junctions>

    <report>
        <verbose value="true"/>
        <aggregate-warnings value="5"/>
    </report>

</configuration>
-->

<net version="1.6" junctionCornerDetail="5" lefthand="true" limitTurnSpeed="5.50" xmlns:xsi="http://www.w3.org/2001/XMLSchema-instance" xsi:noNamespaceSchemaLocation="http://sumo.dlr.de/xsd/net_file.xsd">

    <location netOffset="-608792.01,-3989010.50" convBoundary="0.00,-0.00,855.32,1448.58" origBoundary="136.207824,36.039492,136.217291,36.052580" projParameter="+proj=utm +zone=53 +ellps=WGS84 +datum=WGS84 +units=m +no_defs"/>

    <type id="highway.bridleway" priority="1" numLanes="1" speed="2.78" allow="pedestrian" oneway="1" width="2.00"/>
    <type id="highway.bus_guideway" priority="1" numLanes="1" speed="27.78" allow="bus" oneway="1"/>
    <type id="highway.cycleway" priority="1" numLanes="1" speed="8.33" allow="bicycle" oneway="0" width="1.00"/>
    <type id="highway.footway" priority="1" numLanes="1" speed="2.78" allow="pedestrian" oneway="1" width="2.00"/>
    <type id="highway.ford" priority="1" numLanes="1" speed="2.78" allow="army" oneway="0"/>
    <type id="highway.living_street" priority="2" numLanes="1" speed="2.78" disallow="tram rail_urban rail rail_electric rail_fast ship" oneway="0"/>
    <type id="highway.motorway" priority="14" numLanes="2" speed="39.44" allow="private emergency authority army vip passenger hov taxi bus coach delivery truck trailer motorcycle evehicle custom1 custom2" oneway="1"/>
    <type id="highway.motorway_link" priority="9" numLanes="1" speed="22.22" allow="private emergency authority army vip passenger hov taxi bus coach delivery truck trailer motorcycle evehicle custom1 custom2" oneway="1"/>
    <type id="highway.path" priority="1" numLanes="1" speed="2.78" allow="pedestrian bicycle" oneway="1" width="2.00"/>
    <type id="highway.pedestrian" priority="1" numLanes="1" speed="2.78" allow="pedestrian" oneway="1" width="2.00"/>
    <type id="highway.primary" priority="12" numLanes="2" speed="27.78" disallow="tram rail_urban rail rail_electric rail_fast ship" oneway="0"/>
    <type id="highway.primary_link" priority="7" numLanes="1" speed="22.22" disallow="tram rail_urban rail rail_electric rail_fast ship" oneway="0"/>
    <type id="highway.raceway" priority="15" numLanes="2" speed="83.33" allow="vip" oneway="0"/>
    <type id="highway.residential" priority="3" numLanes="1" speed="13.89" disallow="tram rail_urban rail rail_electric rail_fast ship" oneway="0"/>
    <type id="highway.secondary" priority="11" numLanes="1" speed="27.78" disallow="tram rail_urban rail rail_electric rail_fast ship" oneway="0"/>
    <type id="highway.secondary_link" priority="6" numLanes="1" speed="22.22" disallow="tram rail_urban rail rail_electric rail_fast ship" oneway="0"/>
    <type id="highway.service" priority="1" numLanes="1" speed="5.56" allow="pedestrian delivery bicycle" oneway="0"/>
    <type id="highway.stairs" priority="1" numLanes="1" speed="1.39" allow="pedestrian" oneway="1" width="2.00"/>
    <type id="highway.step" priority="1" numLanes="1" speed="1.39" allow="pedestrian" oneway="1" width="2.00"/>
    <type id="highway.steps" priority="1" numLanes="1" speed="1.39" allow="pedestrian" oneway="1" width="2.00"/>
    <type id="highway.tertiary" priority="10" numLanes="1" speed="22.22" disallow="tram rail_urban rail rail_electric rail_fast ship" oneway="0"/>
    <type id="highway.tertiary_link" priority="5" numLanes="1" speed="22.22" disallow="tram rail_urban rail rail_electric rail_fast ship" oneway="0"/>
    <type id="highway.track" priority="1" numLanes="1" speed="5.56" allow="pedestrian motorcycle moped bicycle" oneway="0"/>
    <type id="highway.trunk" priority="13" numLanes="2" speed="27.78" disallow="pedestrian bicycle tram rail_urban rail rail_electric rail_fast ship" oneway="0"/>
    <type id="highway.trunk_link" priority="8" numLanes="1" speed="22.22" disallow="pedestrian bicycle tram rail_urban rail rail_electric rail_fast ship" oneway="0"/>
    <type id="highway.unclassified" priority="4" numLanes="1" speed="13.89" disallow="tram rail_urban rail rail_electric rail_fast ship" oneway="0"/>
    <type id="highway.unsurfaced" priority="1" numLanes="1" speed="8.33" disallow="tram rail_urban rail rail_electric rail_fast ship" oneway="0"/>
    <type id="railway.highspeed" priority="21" numLanes="1" speed="69.44" allow="rail_fast" oneway="1"/>
    <type id="railway.light_rail" priority="19" numLanes="1" speed="27.78" allow="rail_urban" oneway="1"/>
    <type id="railway.preserved" priority="16" numLanes="1" speed="27.78" allow="rail" oneway="1"/>
    <type id="railway.rail" priority="20" numLanes="1" speed="44.44" allow="rail" oneway="1"/>
    <type id="railway.subway" priority="18" numLanes="1" speed="27.78" allow="rail_urban" oneway="1"/>
    <type id="railway.tram" priority="17" numLanes="1" speed="13.89" allow="tram" oneway="1"/>

    <edge id=":1669704498_0" function="internal">
        <lane id=":1669704498_0_0" index="0" disallow="tram rail_urban rail rail_electric rail_fast ship" speed="3.65" length="4.67" shape="581.17,-0.16 580.25,-1.27 579.42,-1.59 578.66,-1.12 577.98,0.16"/>
    </edge>
    <edge id=":1669713297_0" function="internal">
        <lane id=":1669713297_0_0" index="0" disallow="tram rail_urban rail rail_electric rail_fast ship" speed="6.52" length="9.06" shape="387.66,955.60 385.21,955.26 383.45,954.21 382.39,952.45 382.03,949.99"/>
    </edge>
    <edge id=":1669713297_1" function="internal">
        <lane id=":1669713297_1_0" index="0" disallow="tram rail_urban rail rail_electric rail_fast ship" speed="22.22" length="14.41" shape="387.66,955.60 373.25,955.61"/>
    </edge>
    <edge id=":1669713297_2" function="internal">
        <lane id=":1669713297_2_0" index="0" disallow="tram rail_urban rail rail_electric rail_fast ship" speed="3.65" length="2.34" shape="387.66,955.60 386.46,956.40 386.06,957.21"/>
    </edge>
    <edge id=":1669713297_9" function="internal">
        <lane id=":1669713297_9_0" index="0" disallow="tram rail_urban rail rail_electric rail_fast ship" speed="3.65" length="2.34" shape="386.06,957.21 386.46,958.00 387.67,958.80"/>
    </edge>
    <edge id=":1669713297_3" function="internal">
        <lane id=":1669713297_3_0" index="0" disallow="tram rail_urban rail rail_electric rail_fast ship" speed="22.22" length="14.42" shape="373.25,958.81 387.67,958.80"/>
    </edge>
    <edge id=":1669713297_4" function="internal">
        <lane id=":1669713297_4_0" index="0" disallow="tram rail_urban rail rail_electric rail_fast ship" speed="7.99" length="5.95" shape="373.25,958.81 377.11,958.26 378.87,957.21"/>
    </edge>
    <edge id=":1669713297_5" function="internal">
        <lane id=":1669713297_5_0" index="0" disallow="tram rail_urban rail rail_electric rail_fast ship" speed="3.65" length="2.34" shape="373.25,958.81 374.45,958.01 374.85,957.21"/>
    </edge>
    <edge id=":1669713297_10" function="internal">
        <lane id=":1669713297_10_0" index="0" disallow="tram rail_urban rail rail_electric rail_fast ship" speed="7.99" length="8.27" shape="378.87,957.21 379.86,956.61 381.50,953.85 382.03,949.99"/>
    </edge>
    <edge id=":1669713297_11" function="internal">
        <lane id=":1669713297_11_0" index="0" disallow="tram rail_urban rail rail_electric rail_fast ship" speed="3.65" length="2.34" shape="374.85,957.21 374.45,956.41 373.25,955.61"/>
    </edge>
    <edge id=":1669713297_6" function="internal">
        <lane id=":1669713297_6_0" index="0" disallow="tram rail_urban rail rail_electric rail_fast ship" speed="6.49" length="9.03" shape="378.83,950.01 378.49,952.46 377.45,954.21 375.70,955.26 373.25,955.61"/>
    </edge>
    <edge id=":1669713297_7" function="internal">
        <lane id=":1669713297_7_0" index="0" disallow="tram rail_urban rail rail_electric rail_fast ship" speed="8.01" length="14.21" shape="378.83,950.01 379.40,953.86 381.06,956.61 383.82,958.26 387.67,958.80"/>
    </edge>
    <edge id=":1669713297_8" function="internal">
        <lane id=":1669713297_8_0" index="0" disallow="tram rail_urban rail rail_electric rail_fast ship" speed="3.65" length="4.67" shape="378.83,950.01 379.64,951.20 380.44,951.60 381.24,951.19 382.03,949.99"/>
    </edge>
    <edge id=":1669713305_0" function="internal">
        <lane id=":1669713305_0_0" index="0" disallow="tram rail_urban rail rail_electric rail_fast ship" speed="22.22" length="14.41" shape="316.62,955.55 302.21,955.55"/>
    </edge>
    <edge id=":1669713305_1" function="internal">
        <lane id=":1669713305_1_0" index="0" disallow="tram rail_urban rail rail_electric rail_fast ship" speed="8.00" length="5.94" shape="316.62,955.55 312.77,956.10 311.01,957.15"/>
    </edge>
    <edge id=":1669713305_2" function="internal">
        <lane id=":1669713305_2_0" index="0" disallow="tram rail_urban rail rail_electric rail_fast ship" speed="3.65" length="2.34" shape="316.62,955.55 315.42,956.35 315.02,957.15"/>
    </edge>
    <edge id=":1669713305_9" function="internal">
        <lane id=":1669713305_9_0" index="0" disallow="tram rail_urban rail rail_electric rail_fast ship" speed="8.00" length="8.26" shape="311.01,957.15 310.02,957.75 308.36,960.50 307.81,964.35"/>
    </edge>
    <edge id=":1669713305_10" function="internal">
        <lane id=":1669713305_10_0" index="0" disallow="tram rail_urban rail rail_electric rail_fast ship" speed="3.65" length="2.34" shape="315.02,957.15 315.42,957.95 316.62,958.75"/>
    </edge>
    <edge id=":1669713305_3" function="internal">
        <lane id=":1669713305_3_0" index="0" disallow="tram rail_urban rail rail_electric rail_fast ship" speed="6.51" length="9.03" shape="311.01,964.35 311.36,961.90 312.41,960.15 314.16,959.10 316.62,958.75"/>
    </edge>
    <edge id=":1669713305_4" function="internal">
        <lane id=":1669713305_4_0" index="0" disallow="tram rail_urban rail rail_electric rail_fast ship" speed="8.00" length="14.19" shape="311.01,964.35 310.46,960.50 308.81,957.75 306.06,956.10 302.21,955.55"/>
    </edge>
    <edge id=":1669713305_5" function="internal">
        <lane id=":1669713305_5_0" index="0" disallow="tram rail_urban rail rail_electric rail_fast ship" speed="3.65" length="4.67" shape="311.01,964.35 310.21,963.15 309.41,962.75 308.61,963.15 307.81,964.35"/>
    </edge>
    <edge id=":1669713305_6" function="internal">
        <lane id=":1669713305_6_0" index="0" disallow="tram rail_urban rail rail_electric rail_fast ship" speed="6.51" length="9.03" shape="302.21,958.75 304.66,959.10 306.41,960.15 307.46,961.90 307.81,964.35"/>
    </edge>
    <edge id=":1669713305_7" function="internal">
        <lane id=":1669713305_7_0" index="0" disallow="tram rail_urban rail rail_electric rail_fast ship" speed="22.22" length="14.40" shape="302.21,958.75 316.62,958.75"/>
    </edge>
    <edge id=":1669713305_8" function="internal">
        <lane id=":1669713305_8_0" index="0" disallow="tram rail_urban rail rail_electric rail_fast ship" speed="3.65" length="2.34" shape="302.21,958.75 303.41,957.95 303.81,957.15"/>
    </edge>
    <edge id=":1669713305_11" function="internal">
        <lane id=":1669713305_11_0" index="0" disallow="tram rail_urban rail rail_electric rail_fast ship" speed="3.65" length="2.34" shape="303.81,957.15 303.41,956.35 302.21,955.55"/>
    </edge>
    <edge id=":1669713306_0" function="internal">
        <lane id=":1669713306_0_0" index="0" disallow="tram rail_urban rail rail_electric rail_fast ship" speed="22.22" length="12.01" shape="622.71,955.11 610.70,955.00"/>
    </edge>
    <edge id=":1669713306_1" function="internal">
        <lane id=":1669713306_1_0" index="0" disallow="tram rail_urban rail rail_electric rail_fast ship" speed="8.01" length="4.23" shape="622.71,955.11 620.23,955.60 618.91,956.67"/>
    </edge>
    <edge id=":1669713306_2" function="internal">
        <lane id=":1669713306_2_0" index="0" disallow="tram rail_urban rail rail_electric rail_fast ship" speed="3.65" length="2.34" shape="622.71,955.11 621.49,955.87 621.06,956.66"/>
    </edge>
    <edge id=":1669713306_9" function="internal">
        <lane id=":1669713306_9_0" index="0" disallow="tram rail_urban rail rail_electric rail_fast ship" speed="8.01" length="8.25" shape="618.91,956.67 618.20,957.25 616.64,960.06 615.53,964.02"/>
    </edge>
    <edge id=":1669713306_10" function="internal">
        <lane id=":1669713306_10_0" index="0" disallow="tram rail_urban rail rail_electric rail_fast ship" speed="3.65" length="2.34" shape="621.06,956.66 621.44,957.47 622.62,958.31"/>
    </edge>
    <edge id=":1669713306_3" function="internal">
        <lane id=":1669713306_3_0" index="0" disallow="tram rail_urban rail rail_electric rail_fast ship" speed="6.52" length="7.97" shape="618.67,964.63 619.38,961.83 620.28,959.84 621.35,958.67 622.62,958.31"/>
    </edge>
    <edge id=":1669713306_4" function="internal">
        <lane id=":1669713306_4_0" index="0" disallow="tram rail_urban rail rail_electric rail_fast ship" speed="7.70" length="14.98" shape="618.67,964.63 618.87,960.41 617.61,957.40 614.89,955.59 610.70,955.00"/>
    </edge>
    <edge id=":1669713306_5" function="internal">
        <lane id=":1669713306_5_0" index="0" disallow="tram rail_urban rail rail_electric rail_fast ship" speed="3.65" length="4.67" shape="618.67,964.63 618.12,963.30 617.41,962.75 616.54,963.00 615.53,964.02"/>
    </edge>
    <edge id=":1669713306_6" function="internal">
        <lane id=":1669713306_6_0" index="0" disallow="tram rail_urban rail rail_electric rail_fast ship" speed="6.13" length="9.06" shape="610.71,958.20 613.24,958.56 614.89,959.65 615.65,961.47 615.53,964.02"/>
    </edge>
    <edge id=":1669713306_7" function="internal">
        <lane id=":1669713306_7_0" index="0" disallow="tram rail_urban rail rail_electric rail_fast ship" speed="22.22" length="11.90" shape="610.71,958.20 622.62,958.31"/>
    </edge>
    <edge id=":1669713306_8" function="internal">
        <lane id=":1669713306_8_0" index="0" disallow="tram rail_urban rail rail_electric rail_fast ship" speed="3.65" length="2.34" shape="610.71,958.20 611.91,957.40 612.31,956.60"/>
    </edge>
    <edge id=":1669713306_11" function="internal">
        <lane id=":1669713306_11_0" index="0" disallow="tram rail_urban rail rail_electric rail_fast ship" speed="3.65" length="2.34" shape="612.31,956.60 611.91,955.80 610.70,955.00"/>
    </edge>
    <edge id=":1669713316_0" function="internal">
        <lane id=":1669713316_0_0" index="0" disallow="tram rail_urban rail rail_electric rail_fast ship" speed="6.54" length="9.07" shape="242.56,955.56 240.12,955.20 238.36,954.15 237.30,952.39 236.92,949.93"/>
    </edge>
    <edge id=":1669713316_1" function="internal">
        <lane id=":1669713316_1_0" index="0" disallow="tram rail_urban rail rail_electric rail_fast ship" speed="22.22" length="14.39" shape="242.56,955.56 228.17,955.60"/>
    </edge>
    <edge id=":1669713316_2" function="internal">
        <lane id=":1669713316_2_0" index="0" disallow="tram rail_urban rail rail_electric rail_fast ship" speed="3.65" length="2.34" shape="242.56,955.56 241.36,956.36 240.96,957.16"/>
    </edge>
    <edge id=":1669713316_9" function="internal">
        <lane id=":1669713316_9_0" index="0" disallow="tram rail_urban rail rail_electric rail_fast ship" speed="3.65" length="2.34" shape="240.96,957.16 241.36,957.96 242.56,958.76"/>
    </edge>
    <edge id=":1669713316_3" function="internal">
        <lane id=":1669713316_3_0" index="0" disallow="tram rail_urban rail rail_electric rail_fast ship" speed="22.22" length="14.37" shape="228.19,958.80 242.56,958.76"/>
    </edge>
    <edge id=":1669713316_4" function="internal">
        <lane id=":1669713316_4_0" index="0" disallow="tram rail_urban rail rail_electric rail_fast ship" speed="8.00" length="5.90" shape="228.19,958.80 232.05,958.23 233.75,957.19"/>
    </edge>
    <edge id=":1669713316_5" function="internal">
        <lane id=":1669713316_5_0" index="0" disallow="tram rail_urban rail rail_electric rail_fast ship" speed="3.65" length="2.34" shape="228.19,958.80 229.39,958.00 229.78,957.19"/>
    </edge>
    <edge id=":1669713316_10" function="internal">
        <lane id=":1669713316_10_0" index="0" disallow="tram rail_urban rail rail_electric rail_fast ship" speed="8.00" length="8.31" shape="233.75,957.19 234.78,956.56 236.41,953.79 236.92,949.93"/>
    </edge>
    <edge id=":1669713316_11" function="internal">
        <lane id=":1669713316_11_0" index="0" disallow="tram rail_urban rail rail_electric rail_fast ship" speed="3.65" length="2.34" shape="229.78,957.19 229.38,956.40 228.17,955.60"/>
    </edge>
    <edge id=":1669713316_6" function="internal">
        <lane id=":1669713316_6_0" index="0" disallow="tram rail_urban rail rail_electric rail_fast ship" speed="6.50" length="9.03" shape="233.72,949.96 233.40,952.42 232.36,954.18 230.62,955.24 228.17,955.60"/>
    </edge>
    <edge id=":1669713316_7" function="internal">
        <lane id=":1669713316_7_0" index="0" disallow="tram rail_urban rail rail_electric rail_fast ship" speed="8.03" length="14.19" shape="233.72,949.96 234.31,953.81 235.98,956.56 238.73,958.21 242.56,958.76"/>
    </edge>
    <edge id=":1669713316_8" function="internal">
        <lane id=":1669713316_8_0" index="0" disallow="tram rail_urban rail rail_electric rail_fast ship" speed="3.65" length="4.67" shape="233.72,949.96 234.53,951.15 235.34,951.55 236.13,951.14 236.92,949.93"/>
    </edge>
    <edge id=":1669713332_0" function="internal">
        <lane id=":1669713332_0_0" index="0" disallow="tram rail_urban rail rail_electric rail_fast ship" speed="22.22" length="14.35" shape="168.17,956.00 153.82,956.03"/>
    </edge>
    <edge id=":1669713332_1" function="internal">
        <lane id=":1669713332_1_0" index="0" disallow="tram rail_urban rail rail_electric rail_fast ship" speed="8.03" length="5.87" shape="168.17,956.00 164.34,956.58 162.64,957.61"/>
    </edge>
    <edge id=":1669713332_2" function="internal">
        <lane id=":1669713332_2_0" index="0" disallow="tram rail_urban rail rail_electric rail_fast ship" speed="3.65" length="2.34" shape="168.17,956.00 166.98,956.81 166.58,957.62"/>
    </edge>
    <edge id=":1669713332_9" function="internal">
        <lane id=":1669713332_9_0" index="0" disallow="tram rail_urban rail rail_electric rail_fast ship" speed="8.03" length="8.32" shape="162.64,957.61 161.60,958.24 159.95,961.00 159.39,964.85"/>
    </edge>
    <edge id=":1669713332_10" function="internal">
        <lane id=":1669713332_10_0" index="0" disallow="tram rail_urban rail rail_electric rail_fast ship" speed="3.65" length="2.34" shape="166.58,957.62 166.99,958.41 168.19,959.20"/>
    </edge>
    <edge id=":1669713332_3" function="internal">
        <lane id=":1669713332_3_0" index="0" disallow="tram rail_urban rail rail_electric rail_fast ship" speed="6.54" length="9.06" shape="162.59,964.86 162.94,962.40 164.00,960.64 165.75,959.57 168.19,959.20"/>
    </edge>
    <edge id=":1669713332_4" function="internal">
        <lane id=":1669713332_4_0" index="0" disallow="tram rail_urban rail rail_electric rail_fast ship" speed="8.00" length="14.20" shape="162.59,964.86 162.05,961.01 160.41,958.25 157.67,956.59 153.82,956.03"/>
    </edge>
    <edge id=":1669713332_5" function="internal">
        <lane id=":1669713332_5_0" index="0" disallow="tram rail_urban rail rail_electric rail_fast ship" speed="3.65" length="4.67" shape="162.59,964.86 161.79,963.66 160.99,963.26 160.19,963.65 159.39,964.85"/>
    </edge>
    <edge id=":1669713332_6" function="internal">
        <lane id=":1669713332_6_0" index="0" disallow="tram rail_urban rail rail_electric rail_fast ship" speed="6.50" length="9.03" shape="153.81,959.23 156.26,959.59 158.00,960.64 159.05,962.40 159.39,964.85"/>
    </edge>
    <edge id=":1669713332_7" function="internal">
        <lane id=":1669713332_7_0" index="0" disallow="tram rail_urban rail rail_electric rail_fast ship" speed="22.22" length="14.38" shape="153.81,959.23 168.19,959.20"/>
    </edge>
    <edge id=":1669713332_8" function="internal">
        <lane id=":1669713332_8_0" index="0" disallow="tram rail_urban rail rail_electric rail_fast ship" speed="3.65" length="2.34" shape="153.81,959.23 155.01,958.43 155.41,957.63"/>
    </edge>
    <edge id=":1669713332_11" function="internal">
        <lane id=":1669713332_11_0" index="0" disallow="tram rail_urban rail rail_electric rail_fast ship" speed="3.65" length="2.34" shape="155.41,957.63 155.01,956.83 153.82,956.03"/>
    </edge>
    <edge id=":1669713364_0" function="internal">
        <lane id=":1669713364_0_0" index="0" disallow="tram rail_urban rail rail_electric rail_fast ship" speed="3.65" length="4.67" shape="18.33,955.61 17.13,956.41 16.72,957.21 17.12,958.01 18.32,958.81"/>
    </edge>
    <edge id=":1669713376_0" function="internal">
        <lane id=":1669713376_0_0" index="0" disallow="tram rail_urban rail rail_electric rail_fast ship" speed="3.65" length="4.67" shape="855.33,969.43 856.52,968.62 856.92,967.82 856.51,967.02 855.31,966.23"/>
    </edge>
    <edge id=":1669713568_0" function="internal">
        <lane id=":1669713568_0_0" index="0" disallow="tram rail_urban rail rail_electric rail_fast ship" speed="6.48" length="9.09" shape="704.32,980.12 701.81,980.05 699.94,979.21 698.71,977.58 698.12,975.17"/>
    </edge>
    <edge id=":1669713568_1" function="internal">
        <lane id=":1669713568_1_0" index="0" disallow="tram rail_urban rail rail_electric rail_fast ship" speed="27.78" length="14.48" shape="704.32,980.12 689.93,981.74"/>
    </edge>
    <edge id=":1669713568_2" function="internal">
        <lane id=":1669713568_2_0" index="0" disallow="tram rail_urban rail rail_electric rail_fast ship" speed="7.93" length="5.91" shape="704.32,980.12 700.50,981.13 698.96,982.33"/>
    </edge>
    <edge id=":1669713568_3" function="internal">
        <lane id=":1669713568_3_0" index="0" disallow="tram rail_urban rail rail_electric rail_fast ship" speed="3.65" length="2.34" shape="704.32,980.12 703.22,981.05 702.92,981.89"/>
    </edge>
    <edge id=":1669713568_16" function="internal">
        <lane id=":1669713568_16_0" index="0" disallow="tram rail_urban rail rail_electric rail_fast ship" speed="7.93" length="8.44" shape="698.96,982.33 697.96,983.11 696.72,986.09 696.78,990.04"/>
    </edge>
    <edge id=":1669713568_17" function="internal">
        <lane id=":1669713568_17_0" index="0" disallow="tram rail_urban rail rail_electric rail_fast ship" speed="3.65" length="2.34" shape="702.92,981.89 703.41,982.64 704.69,983.30"/>
    </edge>
    <edge id=":1669713568_4" function="internal">
        <lane id=":1669713568_4_0" index="0" disallow="tram rail_urban rail rail_electric rail_fast ship" speed="6.42" length="9.04" shape="699.94,989.55 699.91,987.06 700.69,985.18 702.28,983.93 704.69,983.30"/>
    </edge>
    <edge id=":1669713568_5" function="internal">
        <lane id=":1669713568_5_0" index="0" disallow="tram rail_urban rail rail_electric rail_fast ship" speed="13.89" length="14.49" shape="699.94,989.55 698.12,975.17"/>
    </edge>
    <edge id=":1669713568_6" function="internal">
        <lane id=":1669713568_6_0" index="0" disallow="tram rail_urban rail rail_electric rail_fast ship" speed="8.17" length="14.33" shape="699.94,989.55 698.80,985.77 696.75,983.22 693.79,981.87 689.93,981.74"/>
    </edge>
    <edge id=":1669713568_7" function="internal">
        <lane id=":1669713568_7_0" index="0" disallow="tram rail_urban rail rail_electric rail_fast ship" speed="3.65" length="4.67" shape="699.94,989.55 698.96,988.48 698.11,988.21 697.38,988.73 696.78,990.04"/>
    </edge>
    <edge id=":1669713568_8" function="internal">
        <lane id=":1669713568_8_0" index="0" disallow="tram rail_urban rail rail_electric rail_fast ship" speed="6.72" length="9.34" shape="690.28,984.92 692.79,985.01 694.70,985.89 696.03,987.57 696.78,990.04"/>
    </edge>
    <edge id=":1669713568_9" function="internal">
        <lane id=":1669713568_9_0" index="0" disallow="tram rail_urban rail rail_electric rail_fast ship" speed="27.78" length="14.50" shape="690.28,984.92 704.69,983.30"/>
    </edge>
    <edge id=":1669713568_10" function="internal">
        <lane id=":1669713568_10_0" index="0" disallow="tram rail_urban rail rail_electric rail_fast ship" speed="8.05" length="5.93" shape="690.28,984.92 694.03,983.95 695.66,982.70"/>
    </edge>
    <edge id=":1669713568_11" function="internal">
        <lane id=":1669713568_11_0" index="0" disallow="tram rail_urban rail rail_electric rail_fast ship" speed="3.65" length="2.34" shape="690.28,984.92 691.39,983.99 691.70,983.15"/>
    </edge>
    <edge id=":1669713568_18" function="internal">
        <lane id=":1669713568_18_0" index="0" disallow="tram rail_urban rail rail_electric rail_fast ship" speed="8.05" length="8.30" shape="695.66,982.70 696.58,982.00 697.95,979.08 698.12,975.17"/>
    </edge>
    <edge id=":1669713568_19" function="internal">
        <lane id=":1669713568_19_0" index="0" disallow="tram rail_urban rail rail_electric rail_fast ship" speed="3.65" length="2.34" shape="691.70,983.15 691.21,982.40 689.93,981.74"/>
    </edge>
    <edge id=":1669713568_12" function="internal">
        <lane id=":1669713568_12_0" index="0" disallow="tram rail_urban rail rail_electric rail_fast ship" speed="6.57" length="9.12" shape="694.94,975.47 694.83,977.98 693.96,979.87 692.32,981.12 689.93,981.74"/>
    </edge>
    <edge id=":1669713568_13" function="internal">
        <lane id=":1669713568_13_0" index="0" disallow="tram rail_urban rail rail_electric rail_fast ship" speed="13.89" length="14.69" shape="694.94,975.47 696.78,990.04"/>
    </edge>
    <edge id=":1669713568_14" function="internal">
        <lane id=":1669713568_14_0" index="0" disallow="tram rail_urban rail rail_electric rail_fast ship" speed="7.98" length="14.33" shape="694.94,975.47 695.86,979.28 697.80,981.85 700.74,983.19 704.69,983.30"/>
    </edge>
    <edge id=":1669713568_15" function="internal">
        <lane id=":1669713568_15_0" index="0" disallow="tram rail_urban rail rail_electric rail_fast ship" speed="3.65" length="4.67" shape="694.94,975.47 695.85,976.59 696.68,976.91 697.44,976.44 698.12,975.17"/>
    </edge>
    <edge id=":1669713595_0" function="internal">
        <lane id=":1669713595_0_0" index="0" disallow="tram rail_urban rail rail_electric rail_fast ship" speed="27.78" length="14.27" shape="664.80,978.36 664.53,992.62"/>
    </edge>
    <edge id=":1669713595_1" function="internal">
        <lane id=":1669713595_1_0" index="0" disallow="tram rail_urban rail rail_electric rail_fast ship" speed="7.82" length="5.78" shape="664.80,978.36 665.38,982.39 666.30,983.83"/>
    </edge>
    <edge id=":1669713595_2" function="internal">
        <lane id=":1669713595_2_0" index="0" disallow="tram rail_urban rail rail_electric rail_fast ship" speed="3.65" length="2.34" shape="664.80,978.36 665.60,979.56 666.40,979.96"/>
    </edge>
    <edge id=":1669713595_9" function="internal">
        <lane id=":1669713595_9_0" index="0" disallow="tram rail_urban rail rail_electric rail_fast ship" speed="7.82" length="8.85" shape="666.30,983.83 667.12,985.12 670.02,986.56 674.10,986.70"/>
    </edge>
    <edge id=":1669713595_10" function="internal">
        <lane id=":1669713595_10_0" index="0" disallow="tram rail_urban rail rail_electric rail_fast ship" speed="3.65" length="2.34" shape="666.40,979.96 667.20,979.56 668.00,978.36"/>
    </edge>
    <edge id=":1669713595_3" function="internal">
        <lane id=":1669713595_3_0" index="0" disallow="tram rail_urban rail rail_electric rail_fast ship" speed="6.28" length="9.04" shape="673.75,983.52 671.23,983.43 669.43,982.54 668.36,980.85 668.00,978.36"/>
    </edge>
    <edge id=":1669713595_4" function="internal">
        <lane id=":1669713595_4_0" index="0" disallow="tram rail_urban rail rail_electric rail_fast ship" speed="8.50" length="14.33" shape="673.75,983.52 669.83,984.45 666.99,986.28 665.22,989.01 664.53,992.62"/>
    </edge>
    <edge id=":1669713595_5" function="internal">
        <lane id=":1669713595_5_0" index="0" disallow="tram rail_urban rail rail_electric rail_fast ship" speed="3.65" length="4.67" shape="673.75,983.52 672.64,984.44 672.33,985.28 672.82,986.03 674.10,986.70"/>
    </edge>
    <edge id=":1669713595_6" function="internal">
        <lane id=":1669713595_6_0" index="0" disallow="tram rail_urban rail rail_electric rail_fast ship" speed="7.10" length="9.71" shape="667.73,992.75 668.20,990.36 669.42,988.55 671.39,987.33 674.10,986.70"/>
    </edge>
    <edge id=":1669713595_7" function="internal">
        <lane id=":1669713595_7_0" index="0" disallow="tram rail_urban rail rail_electric rail_fast ship" speed="27.78" length="14.39" shape="667.73,992.75 668.00,978.36"/>