<?xml version="1.0" encoding="UTF-8"?>

<!-- generated on Tue Apr 13 15:50:47 2021 by Eclipse SUMO duarouter Version 1.7.0
<configuration xmlns:xsi="http://www.w3.org/2001/XMLSchema-instance" xsi:noNamespaceSchemaLocation="http://sumo.dlr.de/xsd/duarouterConfiguration.xsd">

    <input>
        <net-file value="/home/yoshida/carla/Co-Simulation/Sumo/osm_web_wizard/2021-04-13-15-50-40/osm.net.xml"/>
        <route-files value="/home/yoshida/carla/Co-Simulation/Sumo/osm_web_wizard/2021-04-13-15-50-40/osm.passenger.trips.xml"/>
    </input>

    <output>
        <output-file value="/home/yoshida/carla/Co-Simulation/Sumo/osm_web_wizard/2021-04-13-15-50-40/osm.passenger.trips.xml.tmp"/>
        <write-trips value="true"/>
    </output>

    <time>
        <begin value="0"/>
        <end value="3600"/>
    </time>

    <report>
        <no-warnings value="true"/>
        <ignore-errors value="true"/>
        <no-step-log value="true"/>
    </report>

</configuration>
-->

<routes xmlns:xsi="http://www.w3.org/2001/XMLSchema-instance" xsi:noNamespaceSchemaLocation="http://sumo.dlr.de/xsd/routes_file.xsd">
    <vType id="veh_passenger" vClass="passenger"/>
    <trip id="veh0" type="veh_passenger" depart="0.00" departLane="best" from="438103544#0" to="438086720"/>
    <trip id="veh1" type="veh_passenger" depart="15.30" departLane="best" from="438103617#2" to="-154451370"/>
    <trip id="veh2" type="veh_passenger" depart="30.60" departLane="best" from="-438103619#4" to="-154436314#4"/>
    <trip id="veh3" type="veh_passenger" depart="45.91" departLane="best" from="-438103536#1" to="154436045#1"/>
    <trip id="veh4" type="veh_passenger" depart="61.21" departLane="best" from="-154436314#3" to="-438103535#4"/>
    <trip id="veh5" type="veh_passenger" depart="76.51" departLane="best" from="-438103536#1" to="154453222#0"/>
    <trip id="veh6" type="veh_passenger" depart="91.81" departLane="best" from="-154453222#1" to="-154454992"/>
    <trip id="veh7" type="veh_passenger" depart="107.12" departLane="best" from="154436314#6" to="438103627#4"/>
    <trip id="veh8" type="veh_passenger" depart="122.42" departLane="best" from="438103595#1" to="438085939"/>
    <trip id="veh9" type="veh_passenger" depart="137.72" departLane="best" from="438103606#1" to="154451001#2"/>
    <trip id="veh10" type="veh_passenger" depart="153.02" departLane="best" from="438103535#6" to="-154440346#0"/>
    <trip id="veh11" type="veh_passenger" depart="168.32" departLane="best" from="-154451001#3" to="-438103536#5"/>
    <trip id="veh12" type="veh_passenger" depart="183.63" departLane="best" from="-154461563#1" to="-438103550#4"/>
    <trip id="veh13" type="veh_passenger" depart="198.93" departLane="best" from="438085956" to="-438103606#2"/>
    <trip id="veh14" type="veh_passenger" depart="214.23" departLane="best" from="-438103607" to="-438103535#7"/>
    <trip id="veh15" type="veh_passenger" depart="229.53" departLane="best" from="438103633#2" to="438085961#1"/>
    <trip id="veh16" type="veh_passenger" depart="244.84" departLane="best" from="-438103536#4" to="-154436314#5"/>
    <trip id="veh17" type="veh_passenger" depart="260.14" departLane="best" from="-438103593#0" to="-438103550#11"/>
    <trip id="veh18" type="veh_passenger" depart="275.44" departLane="best" from="438103616#0" to="-438103593#0"/>
    <trip id="veh19" type="veh_passenger" depart="290.74" departLane="best" from="438085966#2" to="-438103618#0"/>
    <trip id="veh20" type="veh_passenger" depart="306.04" departLane="best" from="154446819#1" to="-438103550#10"/>
    <trip id="veh21" type="veh_passenger" depart="321.35" departLane="best" from="-438103618#1" to="-438103536#1"/>
    <trip id="veh22" type="veh_passenger" depart="336.65" departLane="best" from="438123794" to="154436314#0"/>
    <trip id="veh23" type="veh_passenger" depart="351.95" departLane="best" from="438103550#9" to="-438103619#4"/>
    <trip id="veh24" type="veh_passenger" depart="367.25" departLane="best" from="438103633#4" to="154436314#4"/>
    <trip id="veh25" type="veh_passenger" depart="382.56" departLane="best" from="-154436314#1" to="438103536#1"/>
    <trip id="veh26" type="veh_passenger" depart="397.86" departLane="best" from="-332261602" to="-438103620#2"/>
    <trip id="veh27" type="veh_passenger" depart="413.16" departLane="best" from="154436045#0" to="-438086722"/>
    <trip id="veh28" type="veh_passenger" depart="428.46" departLane="best" from="438103619#1" to="438103607"/>
    <trip id="veh29" type="veh_passenger" depart="443.76" departLane="best" from="-438103568" to="438085961#0"/>
    <trip id="veh30" type="veh_passenger" depart="459.07" departLane="best" from="438103550#4" to="154436314#4"/>
    <trip id="veh31" type="veh_passenger" depart="474.37" departLane="best" from="-154436045#0" to="-438103595#0"/>
    <trip id="veh32" type="veh_passenger" depart="489.67" departLane="best" from="-154436314#11" to="438103620#1"/>
    <trip id="veh33" type="veh_passenger" depart="504.97" departLane="best" from="-154451001#0" to="438103550#1"/>
    <trip id="veh34" type="veh_passenger" depart="520.28" departLane="best" from="-438103627#4" to="154440346#1"/>
    <trip id="veh35" type="veh_passenger" depart="535.58" departLane="best" from="154436314#7" to="438103536#4"/>
    <trip id="veh36" type="veh_passenger" depart="550.88" departLane="best" from="438103633#4" to="438085966#1"/>
    <trip id="veh37" type="veh_passenger" depart="566.18" departLane="best" from="-438103621#0" to="154436314#11"/>
    <trip id="veh38" type="veh_passenger" depart="581.48" departLane="best" from="-438085944" to="-438103536#3"/>
    <trip id="veh39" type="veh_passenger" depart="596.79" departLane="best" from="-438103599#0" to="154451370"/>
    <trip id="veh40" type="veh_passenger" depart="612.09" departLane="best" from="438103606#0" to="-154451001#0"/>
    <trip id="veh41" type="veh_passenger" depart="627.39" departLane="best" from="-438103544#0" to="438086718#1"/>
    <trip id="veh42" type="veh_passenger" depart="642.69" departLane="best" from="-438103535#8" to="-438085949#1"/>
    <trip id="veh43" type="veh_passenger" depart="658.00" departLane="best" from="-438103627#3" to="438103550#7"/>
    <trip id="veh44" type="veh_passenger" depart="673.30" departLane="best" from="-154454992" to="-438103620#1"/>
    <trip id="veh45" type="veh_passenger" depart="688.60" departLane="best" from="438103536#4" to="438086718#2"/>
    <trip id="veh46" type="veh_passenger" depart="703.90" departLane="best" from="438103633#1" to="-154454992"/>
    <trip id="veh47" type="veh_passenger" depart="719.21" departLane="best" from="438103606#1" to="-438103544#4"/>
    <trip id="veh48" type="veh_passenger" depart="734.51" departLane="best" from="-438103544#4" to="438103619#4"/>
    <trip id="veh49" type="veh_passenger" depart="749.81" departLane="best" from="438123794" to="438103598"/>
    <trip id="veh50" type="veh_passenger" depart="765.11" departLane="best" from="-438103616#1" to="438103633#1"/>
    <trip id="veh51" type="veh_passenger" depart="780.41" departLane="best" from="-438103622#3" to="-438103619#4"/>
    <trip id="veh52" type="veh_passenger" depart="795.72" departLane="best" from="438103622#4" to="438103633#4"/>
    <trip id="veh53" type="veh_passenger" depart="811.02" departLane="best" from="154445409#1" to="438103536#1"/>
    <trip id="veh54" type="veh_passenger" depart="826.32" departLane="best" from="-438085966#2" to="-438103568"/>
    <trip id="veh55" type="veh_passenger" depart="841.62" departLane="best" from="438103627#2" to="154451001#3"/>
    <trip id="veh56" type="veh_passenger" depart="856.93" departLane="best" from="154436314#9" to="438103544#3"/>
    <trip id="veh57" type="veh_passenger" depart="872.23" departLane="best" from="154436045#0" to="438103602#2"/>
    <trip id="veh58" type="veh_passenger" depart="887.53" departLane="best" from="-438086717#0" to="438103627#0"/>
    <trip id="veh59" type="veh_passenger" depart="902.83" departLane="best" from="-438103544#0" to="-438085944"/>
    <trip id="veh60" type="veh_passenger" depart="918.13" departLane="best" from="-438103619#3" to="154451001#4"/>
    <trip id="veh61" type="veh_passenger" depart="933.44" departLane="best" from="154436314#2" to="438103620#2"/>
    <trip id="veh62" type="veh_passenger" depart="948.74" departLane="best" from="-438103593#0" to="438103544#5"/>
    <trip id="veh63" type="veh_passenger" depart="964.04" departLane="best" from="-154451001#1" to="-438103535#8"/>
    <trip id="veh64" type="veh_passenger" depart="979.34" departLane="best" from="-438103550#10" to="438103620#2"/>
    <trip id="veh65" type="veh_passenger" depart="994.65" departLane="best" from="-438103607" to="-438086717#0"/>
    <trip id="veh66" type="veh_passenger" depart="1009.95" departLane="best" from="332261602" to="438103633#2"/>
    <trip id="veh67" type="veh_passenger" depart="1025.25" departLane="best" from="438085966#2" to="-154436314#0"/>
    <trip id="veh68" type="veh_passenger" depart="1040.55" departLane="best" from="438103593#1" to="-438103574"/>
    <trip id="veh69" type="veh_passenger" depart="1055.85" departLane="best" from="438086718#0" to="438103621#1"/>
    <trip id="veh70" type="veh_passenger" depart="1071.16" departLane="best" from="-438103550#3" to="154464015#0"/>
    <trip id="veh71" type="veh_passenger" depart="1086.46" departLane="best" from="-438103633#2" to="438103618#3"/>
    <trip id="veh72" type="veh_passenger" depart="1101.76" departLane="best" from="438103602#0" to="-154453222#1"/>
    <trip id="veh73" type="veh_passenger" depart="1117.06" departLane="best" from="-154436045#1" to="438103550#2"/>
    <trip id="veh74" type="veh_passenger" depart="1132.37" departLane="best" from="438103544#1" to="154445409#0"/>
    <trip id="veh75" type="veh_passenger" depart="1147.67" departLane="best" from="-438103620#0" to="-154436314#0"/>
    <trip id="veh76" type="veh_passenger" depart="1162.97" departLane="best" from="-438085966#2" to="438103620#1"/>
    <trip id="veh77" type="veh_passenger" depart="1178.27" departLane="best" from="-154436314#3" to="438103544#0"/>
    <trip id="veh78" type="veh_passenger" depart="1193.57" departLane="best" from="-438103597" to="438103620#1"/>
    <trip id="veh79" type="veh_passenger" depart="1208.88" departLane="best" from="438103615" to="438103606#0"/>
    <trip id="veh80" type="veh_passenger" depart="1224.18" departLane="best" from="-438103627#0" to="-438103581"/>
    <trip id="veh81" type="veh_passenger" depart="1239.48" departLane="best" from="-154436314#2" to="-438103535#2"/>
    <trip id="veh82" type="veh_passenger" depart="1254.78" departLane="best" from="438103627#2" to="-438103550#5"/>
    <trip id="veh83" type="veh_passenger" depart="1270.09" departLane="best" from="438103633#0" to="154436314#6"/>
    <trip id="veh84" type="veh_passenger" depart="1285.39" departLane="best" from="438103627#3" to="-438086722"/>
    <trip id="veh85" type="veh_passenger" depart="1300.69" departLane="best" from="438103627#0" to="-438103550#11"/>
    <trip id="veh86" type="veh_passenger" depart="1315.99" departLane="best" from="-154464015#1" to="-438103620#2"/>
    <trip id="veh87" type="veh_passenger" depart="1331.29" departLane="best" from="438103536#4" to="-438103593#0"/>
    <trip id="veh88" type="veh_passenger" depart="1346.60" departLane="best" from="-438103617#0" to="154451001#2"/>
    <trip id="veh89" type="veh_passenger" depart="1361.90" departLane="best" from="-154436045#0" to="438103620#0"/>
    <trip id="veh90" type="veh_passenger" depart="1377.20" departLane="best" from="154436314#7" to="438103536#1"/>
    <trip id="veh91" type="veh_passenger" depart="1392.50" departLane="best" from="438103544#2" to="438086718#2"/>
    <trip id="veh92" type="veh_passenger" depart="1407.81" departLane="best" from="438086718#0" to="-438103597"/>
    <trip id="veh93" type="veh_passenger" depart="1423.11" departLane="best" from="-438103593#0" to="438103602#1"/>
    <trip id="veh94" type="veh_passenger" depart="1438.41" departLane="best" from="438103536#1" to="-438103574"/>
    <trip id="veh95" type="veh_passenger" depart="1453.71" departLane="best" from="-438103588#0" to="-438103619#0"/>
    <trip id="veh96" type="veh_passenger" depart="1469.01" departLane="best" from="-438085949#0" to="-438103619#3"/>
    <trip id="veh97" type="veh_passenger" depart="1484.32" departLane="best" from="-438103574" to="154440346#1"/>
    <trip id="veh98" type="veh_passenger" depart="1499.62" departLane="best" from="-438103620#1" to="154451001#3"/>
    <trip id="veh99" type="veh_passenger" depart="1514.92" departLane="best" from="438085966#2" to="-438103627#1"/>
    <trip id="veh100" type="veh_passenger" depart="1530.22" departLane="best" from="-438103621#1" to="-438103535#8"/>
    <trip id="veh101" type="veh_passenger" depart="1545.53" departLane="best" from="438103568" to="-438086718#1"/>
    <trip id="veh102" type="veh_passenger" depart="1560.83" departLane="best" from="438085956" to="-438103598"/>
    <trip id="veh103" type="veh_passenger" depart="1576.13" departLane="best" from="438103593#1" to="438103544#4"/>
    <trip id="veh104" type="veh_passenger" depart="1591.43" departLane="best" from="438086718#2" to="-438103536#3"/>
    <trip id="veh105" type="veh_passenger" depart="1606.73" departLane="best" from="-438103535#4" to="-154436314#3"/>
    <trip id="veh106" type="veh_passenger" depart="1622.04" departLane="best" from="-438103544#2" to="-438103627#4"/>
    <trip id="veh107" type="veh_passenger" depart="1637.34" departLane="best" from="-438103619#1" to="438085949#1"/>
    <trip id="veh108" type="veh_passenger" depart="1652.64" departLane="best" from="-154464015#1" to="-438103619#4"/>
    <trip id="veh109" type="veh_passenger" depart="1667.94" departLane="best" from="-438086720" to="438103622#4"/>
    <trip id="veh110" type="veh_passenger" depart="1683.25" departLane="best" from="154436314#11" to="-154440346#1"/>
    <trip id="veh111" type="veh_passenger" depart="1698.55" departLane="best" from="438086718#1" to="438103633#2"/>
    <trip id="veh112" type="veh_passenger" depart="1713.85" departLane="best" from="154454992" to="438103622#2"/>
    <trip id="veh113" type="veh_passenger" depart="1729.15" departLane="best" from="438103617#2" to="438085926"/>
    <trip id="veh114" type="veh_passenger" depart="1744.45" departLane="best" from="438103536#1" to="154436045#1"/>
    <trip id="veh115" type="veh_passenger" depart="1759.76" departLane="best" from="438103597" to="154440346#1"/>
    <trip id="veh116" type="veh_passenger" depart="1775.06" departLane="best" from="-438103544#3" to="438085961#0"/>
    <trip id="veh117" type="veh_passenger" depart="1790.36" departLane="best" from="438085949#0" to="-438103550#3"/>
    <trip id="veh118" type="veh_passenger" depart="1805.66" departLane="best" from="-438103619#3" to="438103618#3"/>
    <trip id="veh119" type="veh_passenger" depart="1820.97" departLane="best" from="438103604" to="438103550#11"/>
    <trip id="veh120" type="veh_passenger" depart="1836.27" departLane="best" from="-438103619#3" to="438103544#3"/>
    <trip id="veh121" type="veh_passenger" depart="1851.57" departLane="best" from="-438103598" to="438086722"/>
    <trip id="veh122" type="veh_passenger" depart="1866.87" departLane="best" from="-438103627#2" to="-438085949#0"/>
    <trip id="veh123" type="veh_passenger" depart="1882.17" departLane="best" from="-438085956" to="-438103627#0"/>
    <trip id="veh124" type="veh_passenger" depart="1897.48" departLane="best" from="438103550#1" to="-438103616#1"/>
    <trip id="veh125" type="veh_passenger" depart="1912.78" departLane="best" from="438103544#5" to="438103597"/>
    <trip id="veh126" type="veh_passenger" depart="1928.08" departLane="best" from="-438103544#5" to="-154451001#4"/>
    <trip id="veh127" type="veh_passenger" depart="1943.38" departLane="best" from="-154436314#11" to="154436314#7"/>
    <trip id="veh128" type="veh_passenger" depart="1958.69" departLane="best" from="-154436314#11" to="-438085966#1"/>
    <trip id="veh129" type="veh_passenger" depart="1973.99" departLane="best" from="154446819#1" to="-438103536#1"/>
    <trip id="veh130" type="veh_passenger" depart="1989.29" departLane="best" from="438103535#4" to="438103550#11"/>
    <trip id="veh131" type="veh_passenger" depart="2004.59" departLane="best" from="438103544#3" to="-438085926"/>
    <trip id="veh132" type="veh_passenger" depart="2019.89" departLane="best" from="438103536#0" to="-154451001#2"/>
    <trip id="veh133" type="veh_passenger" depart="2035.20" departLane="best" from="438103535#2" to="438085949#0"/>
    <trip id="veh134" type="veh_passenger" depart="2050.50" departLane="best" from="-154461563#1" to="438103550#3"/>
    <trip id="veh135" type="veh_passenger" depart="2065.80" departLane="best" from="-438085944" to="438103633#1"/>
    <trip id="veh136" type="veh_passenger" depart="2081.10" departLane="best" from="-438103620#0" to="-438103607"/>
    <trip id="veh137" type="veh_passenger" depart="2096.41" departLane="best" from="-154464015#1" to="438103627#0"/>
    <trip id="veh138" type="veh_passenger" depart="2111.71" departLane="best" from="438103535#6" to="-438103621#0"/>
    <trip id="veh139" type="veh_passenger" depart="2127.01" departLane="best" from="438103536#5" to="438103627#1"/>
    <trip id="veh140" type="veh_passenger" depart="2142.31" departLane="best" from="154436314#7" to="-438103633#1"/>
    <trip id="veh141" type="veh_passenger" depart="2157.62" departLane="best" from="438103597" to="-154451370"/>
    <trip id="veh142" type="veh_passenger" depart="2172.92" departLane="best" from="438103616#2" to="-438103544#2"/>
    <trip id="veh143" type="veh_passenger" depart="2188.22" departLane="best" from="-438103627#1" to="332261602"/>
    <trip id="veh144" type="veh_passenger" depart="2203.52" departLane="best" from="438103602#2" to="-438103534#0"/>
    <trip id="veh145" type="veh_passenger" depart="2218.82" departLane="best" from="-154436314#0" to="438103622#1"/>
    <trip id="veh146" type="veh_passenger" depart="2234.13" departLane="best" from="-154451370" to="438103536#1"/>
    <trip id="veh147" type="veh_passenger" depart="2249.43" departLane="best" from="438103535#2" to="438085961#2"/>
    <trip id="veh148" type="veh_passenger" depart="2264.73" departLane="best" from="-438103633#3" to="438103566"/>
    <trip id="veh149" type="veh_passenger" depart="2280.03" departLane="best" from="-154453222#1" to="-438103536#2"/>
    <trip id="veh150" type="veh_passenger" depart="2295.34" departLane="best" from="154451001#3" to="-438103627#4"/>
    <trip id="veh151" type="veh_passenger" depart="2310.64" departLane="best" from="154436314#5" to="-438103620#0"/>
    <trip id="veh152" type="veh_passenger" depart="2325.94" departLane="best" from="438103544#3" to="-438103597"/>
    <trip id="veh153" type="veh_passenger" depart="2341.24" departLane="best" from="-438103535#2" to="-438085944"/>
    <trip id="veh154" type="veh_passenger" depart="2356.54" departLane="best" from="-438103534#1" to="-438103536#0"/>
    <trip id="veh155" type="veh_passenger" depart="2371.85" departLane="best" from="438103627#5" to="154436314#3"/>
    <trip id="veh156" type="veh_passenger" depart="2387.15" departLane="best" from="-438086722" to="-154436314#10"/>
    <trip id="veh157" type="veh_passenger" depart="2402.45" departLane="best" from="154436314#6" to="-438103550#3"/>
    <trip id="veh158" type="veh_passenger" depart="2417.75" departLane="best" from="438103627#4" to="154445409#0"/>
    <trip id="veh159" type="veh_passenger" depart="2433.06" departLane="best" from="438103535#4" to="-438085949#0"/>
    <trip id="veh160" type="veh_passenger" depart="2448.36" departLane="best" from="438103607" to="-438103633#3"/>
    <trip id="veh161" type="veh_passenger" depart="2463.66" departLane="best" from="438103615" to="154451001#1"/>
    <trip id="veh162" type="veh_passenger" depart="2478.96" departLane="best" from="-438103627#3" to="-438103621#1"/>
    <trip id="veh163" type="veh_passenger" depart="2494.26" departLane="best" from="438103621#1" to="-438103627#5"/>
    <trip id="veh164" type="veh_passenger" depart="2509.57" departLane="best" from="154446819#1" to="-438103581"/>
    <trip id="veh165" type="veh_passenger" depart="2524.87" departLane="best" from="438103633#4" to="-438085939"/>
    <trip id="veh166" type="veh_passenger" depart="2540.17" departLane="best" from="-438086720" to="-154451001#2"/>
    <trip id="veh167" type="veh_passenger" depart="2555.47" departLane="best" from="438086717#1" to="438103620#2"/>
    <trip id="veh168" type="veh_passenger" depart="2570.78" departLane="best" from="-438103619#4" to="154440346#0"/>
    <trip id="veh169" type="veh_passenger" depart="2586.08" departLane="best" from="438085966#0" to="438103619#0"/>
    <trip id="veh170" type="veh_passenger" depart="2601.38" departLane="best" from="438103544#4" to="154451001#0"/>
    <trip id="veh171" type="veh_passenger" depart="2616.68" departLane="best" from="438103622#0" to="154436045#0"/>
    <trip id="veh172" type="veh_passenger" depart="2631.98" departLane="best" from="-438103633#4" to="-154451001#3"/>
    <trip id="veh173" type="veh_passenger" depart="2647.29" departLane="best" from="-154436314#7" to="-438103620#2"/>
    <trip id="veh174" type="veh_passenger" depart="2662.59" departLane="best" from="-154453222#0" to="438103627#0"/>
    <trip id="veh175" type="veh_passenger" depart="2677.89" departLane="best" from="438086718#2" to="-438103550#2"/>
    <trip id="veh176" type="veh_passenger" depart="2693.19" departLane="best" from="-154436314#7" to="438103550#0"/>
    <trip id="veh177" type="veh_passenger" depart="2708.50" departLane="best" from="-438103627#3" to="438085966#1"/>
    <trip id="veh178" type="veh_passenger" depart="2723.80" departLane="best" from="438103619#2" to="-438103534#0"/>
    <trip id="veh179" type="veh_passenger" depart="2739.10" departLane="best" from="154451370" to="438085956"/>
    <trip id="veh180" type="veh_passenger" depart="2754.40" departLane="best" from="-438103633#3" to="-154453222#0"/>
    <trip id="veh181" type="veh_passenger" depart="2769.70" departLane="best" from="438086718#2" to="438103606#0"/>
    <trip id="veh182" type="veh_passenger" depart="2785.01" departLane="best" from="438103593#0" to="154440346#1"/>
    <trip id="veh183" type="veh_passenger" depart="2800.31" departLane="best" from="-438103622#3" to="-438103593#0"/>
    <trip id="veh184" type="veh_passenger" depart="2815.61" departLane="best" from="-438103618#2" to="154436314#10"/>
    <trip id="veh185" type="veh_passenger" depart="2830.91" departLane="best" from="154436314#9" to="-438103619#1"/>
    <trip id="veh186" type="veh_passenger" depart="2846.22" departLane="best" from="438103550#0" to="438085947"/>
    <trip id="veh187" type="veh_passenger" depart="2861.52" departLane="best" from="154440346#1" to="438103620#0"/>
    <trip id="veh188" type="veh_passenger" depart="2876.82" departLane="best" from="-438085944" to="438103627#4"/>
    <trip id="veh189" type="veh_passenger" depart="2892.12" departLane="best" from="332261602" to="-438103544#1"/>
    <trip id="veh190" type="veh_passenger" depart="2907.42" departLane="best" from="438103633#3" to="438103619#1"/>
    <trip id="veh191" type="veh_passenger" depart="2922.73" departLane="best" from="-438103627#0" to="-438085939"/>
    <trip id="veh192" type="veh_passenger" depart="2938.03" departLane="best" from="438103597" to="-438123794"/>
    <trip id="veh193" type="veh_passenger" depart="2953.33" departLane="best" from="438103536#0" to="154436314#0"/>
    <trip id="veh194" type="veh_passenger" depart="2968.63" departLane="best" from="438103619#4" to="154436314#0"/>
    <trip id="veh195" type="veh_passenger" depart="2983.94" departLane="best" from="154436314#0" to="438103593#2"/>
    <trip id="veh196" type="veh_passenger" depart="2999.24" departLane="best" from="-438103550#7" to="-438103568"/>
    <trip id="veh197" type="veh_passenger" depart="3014.54" departLane="best" from="154451370" to="438123794"/>
    <trip id="veh198" type="veh_passenger" depart="3029.84" departLane="best" from="-438103633#2" to="-438085966#0"/>
    <trip id="veh199" type="veh_passenger" depart="3045.14" departLane="best" from="154436314#7" to="-438103602#0"/>
    <trip id="veh200" type="veh_passenger" depart="3060.45" departLane="best" from="438103550#4" to="-154436314#9"/>
    <trip id="veh201" type="veh_passenger" depart="3075.75" departLane="best" from="438086718#0" to="438103593#2"/>
    <trip id="veh202" type="veh_passenger" depart="3091.05" departLane="best" from="154453222#0" to="438103607"/>
    <trip id="veh203" type="veh_passenger" depart="3106.35" departLane="best" from="438103536#2" to="-438103619#0"/>
    <trip id="veh204" type="veh_passenger" depart="3121.66" departLane="best" from="438103602#2" to="438103606#0"/>
    <trip id="veh205" type="veh_passenger" depart="3136.96" departLane="best" from="-438103616#1" to="-438103593#1"/>
    <trip id="veh206" type="veh_passenger" depart="3152.26" departLane="best" from="438103615" to="-154436314#6"/>
    <trip id="veh207" type="veh_passenger" depart="3167.56" departLane="best" from="438103619#3" to="438123794"/>
    <trip id="veh208" type="veh_passenger" depart="3182.86" departLane="best" from="-154454992" to="438085956"/>
    <trip id="veh209" type="veh_passenger" depart="3198.17" departLane="best" from="-154440346#0" to="438103568"/>
    <trip id="veh210" type="veh_passenger" depart="3213.47" departLane="best" from="-438086718#1" to="-154451001#3"/>
    <trip id="veh211" type="veh_passenger" depart="3228.77" departLane="best" from="438103615" to="438085944"/>
    <trip id="veh212" type="veh_passenger" depart="3244.07" departLane="best" from="-438103544#1" to="438103619#1"/>
    <trip id="veh213" type="veh_passenger" depart="3259.38" departLane="best" from="-438085961#2" to="-438103627#0"/>
    <trip id="veh214" type="veh_passenger" depart="3274.68" departLane="best" from="-438103544#5" to="-438103550#0"/>
    <trip id="veh215" type="veh_passenger" depart="3289.98" departLane="best" from="438103618#1" to="438086722"/>
    <trip id="veh216" type="veh_passenger" depart="3305.28" departLane="best" from="-438103602#0" to="154451370"/>
    <trip id="veh217" type="veh_passenger" depart="3320.58" departLane="best" from="438085961#0" to="-438103619#4"/>
    <trip id="veh218" type="veh_passenger" depart="3335.89" departLane="best" from="438103627#5" to="438086717#0"/>
    <trip id="veh219" type="veh_passenger" depart="3351.19" departLane="best" from="438103534#1" to="438103544#2"/>
    <trip id="veh220" type="veh_passenger" depart="3366.49" departLane="best" from="-438103550#8" to="438103568"/>
    <trip id="veh221" type="veh_passenger" depart="3381.79" departLane="best" from="438086722" to="438103536#1"/>
    <trip id="veh222" type="veh_passenger" depart="3397.10" departLane="best" from="438086717#0" to="438103599#0"/>
    <trip id="veh223" type="veh_passenger" depart="3412.40" departLane="best" from="438103536#5" to="-154453222#0"/>
    <trip id="veh224" type="veh_passenger" depart="3427.70" departLane="best" from="154436314#7" to="438103627#3"/>
    <trip id="veh225" type="veh_passenger" depart="3443.00" departLane="best" from="154436314#5" to="438103619#1"/>
    <trip id="veh226" type="veh_passenger" depart="3458.30" departLane="best" from="438103597" to="-438103550#0"/>
    <trip id="veh227" type="veh_passenger" depart="3473.61" departLane="best" from="438103627#1" to="-438085961#1"/>
    <trip id="veh228" type="veh_passenger" depart="3488.91" departLane="best" from="438103627#2" to="438103581"/>
    <trip id="veh229" type="veh_passenger" depart="3504.21" departLane="best" from="-438103606#2" to="438103550#9"/>
    <trip id="veh230" type="veh_passenger" depart="3519.51" departLane="best" from="438103593#2" to="438103621#1"/>
    <trip id="veh231" type="veh_passenger" depart="3534.82" departLane="best" from="-154464015#1" to="-438103536#5"/>
    <trip id="veh232" type="veh_passenger" depart="3550.12" departLane="best" from="-154454992" to="438103617#0"/>
    <trip id="veh233" type="veh_passenger" depart="3565.42" departLane="best" from="-438085956" to="-438103622#3"/>
    <trip id="veh234" type="veh_passenger" depart="3580.72" departLane="best" from="438103544#2" to="-438085966#2"/>
    <trip id="veh235" type="veh_passenger" depart="3596.03" departLane="best" from="-438103619#1" to="-154461563#1"/>
</routes>
