<?xml version="1.0" encoding="UTF-8"?>

<!--
// Copyright (C) 2011 Christoph Sommer <sommer@ccs-labs.org>
//
// Documentation for these modules is at http://veins.car2x.org/
//
// SPDX-License-Identifier: (GPL-2.0-or-later OR CC-BY-SA-4.0)
//
// This program is free software; you can redistribute it and/or modify
// it under the terms of the GNU General Public License as published by
// the Free Software Foundation; either version 2 of the License, or
// (at your option) any later version.
//
// This program is distributed in the hope that it will be useful,
// but WITHOUT ANY WARRANTY; without even the implied warranty of
// MERCHANTABILITY or FITNESS FOR A PARTICULAR PURPOSE.  See the
// GNU General Public License for more details.
//
// You should have received a copy of the GNU General Public License
// along with this program; if not, write to the Free Software
// Foundation, Inc., 59 Temple Place, Suite 330, Boston, MA  02111-1307  USA
//
// -
//
// At your option, you can also redistribute and/or modify this file
// under a
// Creative Commons Attribution-ShareAlike 4.0 International License.
//
// You should have received a copy of the license along with this
// work.  If not, see <http://creativecommons.org/licenses/by-sa/4.0/>.
-->

<!-- generated on Sat May  4 18:30:20 2013 by SUMO netconvert Version 0.17.0
<?xml version="1.0" encoding="UTF-8"?>

<configuration xmlns:xsi="http://www.w3.org/2001/XMLSchema-instance" xsi:noNamespaceSchemaLocation="http://sumo.sf.net/xsd/netconvertConfiguration.xsd">

    <input>
        <node-files value="net.nod.xml"/>
        <edge-files value="net.edg.xml"/>
    </input>

    <output>
        <output-file value="net.net.xml"/>
    </output>

    <tls_building>
        <tls.set value="10"/>
        <tls.green.time value="999"/>
        <tls.yellow.time value="1"/>
    </tls_building>

</configuration>
-->

<net version="0.13" xmlns:xsi="http://www.w3.org/2001/XMLSchema-instance" xsi:noNamespaceSchemaLocation="http://sumo.sf.net/xsd/net_file.xsd">

    <location netOffset="0.00,1.65" convBoundary="0.00,0.00,1100.00,101.65" origBoundary="0.00,-1.65,1100.00,100.00" projParameter="!"/>

    <edge id=":10_0" function="internal">
        <lane id=":10_0_0" index="0" speed="21.72" length="6.20" shape="298.35,53.10 298.35,46.90"/>
    </edge>
    <edge id=":10_1" function="internal">
        <lane id=":10_1_0" index="0" speed="24.75" length="4.73" shape="298.35,53.10 298.75,51.74 299.95,50.77 301.65,50.28"/>
    </edge>
    <edge id=":10_9" function="internal">
        <lane id=":10_9_0" index="0" speed="24.75" length="3.12" shape="301.65,50.28 301.95,50.19 304.75,50.00"/>
    </edge>
    <edge id=":10_2" function="internal">
        <lane id=":10_2_0" index="0" speed="21.72" length="2.41" shape="298.35,53.10 299.17,51.86 300.00,51.45"/>
    </edge>
    <edge id=":10_10" function="internal">
        <lane id=":10_10_0" index="0" speed="21.72" length="2.41" shape="300.00,51.45 300.83,51.86 301.65,53.10"/>
    </edge>
    <edge id=":10_3" function="internal">
        <lane id=":10_3_0" index="0" speed="24.75" length="5.00" shape="301.65,46.90 301.84,48.26 302.43,49.23 303.39,49.81 304.75,50.00"/>
    </edge>
    <edge id=":10_4" function="internal">
        <lane id=":10_4_0" index="0" speed="21.72" length="6.20" shape="301.65,46.90 301.65,53.10"/>
    </edge>
    <edge id=":10_5" function="internal">
        <lane id=":10_5_0" index="0" speed="21.72" length="2.41" shape="301.65,46.90 300.83,48.14 300.00,48.55"/>
    </edge>
    <edge id=":10_11" function="internal">
        <lane id=":10_11_0" index="0" speed="21.72" length="2.41" shape="300.00,48.55 299.18,48.14 298.35,46.90"/>
    </edge>
    <edge id=":10_6" function="internal">
        <lane id=":10_6_0" index="0" speed="24.75" length="5.00" shape="295.25,50.00 296.61,49.81 297.58,49.23 298.16,48.26 298.35,46.90"/>
    </edge>
    <edge id=":10_7" function="internal">
        <lane id=":10_7_0" index="0" speed="27.78" length="9.50" shape="295.25,50.00 304.75,50.00"/>
    </edge>
    <edge id=":10_8" function="internal">
        <lane id=":10_8_0" index="0" speed="24.75" length="3.12" shape="295.25,50.00 298.05,50.19 298.35,50.28"/>
    </edge>
    <edge id=":10_12" function="internal">
        <lane id=":10_12_0" index="0" speed="24.75" length="4.73" shape="298.35,50.28 300.05,50.77 301.25,51.74 301.65,53.10"/>
    </edge>
    <edge id=":11_0" function="internal">
        <lane id=":11_0_0" index="0" speed="21.97" length="5.00" shape="301.65,96.90 301.84,98.26 302.43,99.23 303.39,99.81 304.75,100.00"/>
    </edge>
    <edge id=":11_1" function="internal">
        <lane id=":11_1_0" index="0" speed="21.72" length="4.82" shape="301.65,96.90 300.83,98.14 300.00,98.55 299.18,98.14 298.35,96.90"/>
    </edge>
    <edge id=":11_2" function="internal">
        <lane id=":11_2_0" index="0" speed="21.97" length="5.00" shape="295.25,100.00 296.61,99.81 297.58,99.23 298.16,98.26 298.35,96.90"/>
    </edge>
    <edge id=":11_3" function="internal">
        <lane id=":11_3_0" index="0" speed="22.22" length="9.50" shape="295.25,100.00 304.75,100.00"/>
    </edge>
    <edge id=":12_0" function="internal">
        <lane id=":12_0_0" index="0" speed="21.97" length="7.85" shape="398.35,3.10 398.75,1.74 399.95,0.77 401.95,0.19 404.75,0.00"/>
    </edge>
    <edge id=":12_1" function="internal">
        <lane id=":12_1_0" index="0" speed="21.72" length="4.82" shape="398.35,3.10 399.17,1.86 400.00,1.45 400.83,1.86 401.65,3.10"/>
    </edge>
    <edge id=":12_2" function="internal">
        <lane id=":12_2_0" index="0" speed="22.22" length="9.50" shape="395.25,0.00 404.75,0.00"/>
    </edge>
    <edge id=":12_3" function="internal">
        <lane id=":12_3_0" index="0" speed="21.97" length="7.85" shape="395.25,0.00 398.05,0.19 400.05,0.77 401.25,1.74 401.65,3.10"/>
    </edge>
    <edge id=":13_0" function="internal">
        <lane id=":13_0_0" index="0" speed="21.72" length="6.20" shape="398.35,53.10 398.35,46.90"/>
    </edge>
    <edge id=":13_1" function="internal">
        <lane id=":13_1_0" index="0" speed="24.75" length="7.85" shape="398.35,53.10 398.75,51.74 399.95,50.77 401.95,50.19 404.75,50.00"/>
    </edge>
    <edge id=":13_2" function="internal">
        <lane id=":13_2_0" index="0" speed="21.72" length="4.82" shape="398.35,53.10 399.17,51.86 400.00,51.45 400.83,51.86 401.65,53.10"/>
    </edge>
    <edge id=":13_3" function="internal">
        <lane id=":13_3_0" index="0" speed="24.75" length="5.00" shape="401.65,46.90 401.84,48.26 402.43,49.23 403.39,49.81 404.75,50.00"/>
    </edge>
    <edge id=":13_4" function="internal">
        <lane id=":13_4_0" index="0" speed="21.72" length="6.20" shape="401.65,46.90 401.65,53.10"/>
    </edge>
    <edge id=":13_5" function="internal">
        <lane id=":13_5_0" index="0" speed="21.72" length="4.82" shape="401.65,46.90 400.83,48.14 400.00,48.55 399.18,48.14 398.35,46.90"/>
    </edge>
    <edge id=":13_6" function="internal">
        <lane id=":13_6_0" index="0" speed="24.75" length="5.00" shape="395.25,50.00 396.61,49.81 397.58,49.23 398.16,48.26 398.35,46.90"/>
    </edge>
    <edge id=":13_7" function="internal">
        <lane id=":13_7_0" index="0" speed="27.78" length="9.50" shape="395.25,50.00 404.75,50.00"/>
    </edge>
    <edge id=":13_8" function="internal">
        <lane id=":13_8_0" index="0" speed="24.75" length="7.85" shape="395.25,50.00 398.05,50.19 400.05,50.77 401.25,51.74 401.65,53.10"/>
    </edge>
    <edge id=":14_0" function="internal">
        <lane id=":14_0_0" index="0" speed="21.97" length="5.00" shape="401.65,96.90 401.84,98.26 402.43,99.23 403.39,99.81 404.75,100.00"/>
    </edge>
    <edge id=":14_1" function="internal">
        <lane id=":14_1_0" index="0" speed="21.72" length="4.82" shape="401.65,96.90 400.83,98.14 400.00,98.55 399.18,98.14 398.35,96.90"/>
    </edge>
    <edge id=":14_2" function="internal">
        <lane id=":14_2_0" index="0" speed="21.97" length="5.00" shape="395.25,100.00 396.61,99.81 397.58,99.23 398.16,98.26 398.35,96.90"/>
    </edge>
    <edge id=":14_3" function="internal">
        <lane id=":14_3_0" index="0" speed="22.22" length="9.50" shape="395.25,100.00 404.75,100.00"/>
    </edge>
    <edge id=":15_0" function="internal">
        <lane id=":15_0_0" index="0" speed="21.97" length="7.85" shape="498.35,3.10 498.75,1.74 499.95,0.77 501.95,0.19 504.75,0.00"/>
    </edge>
    <edge id=":15_1" function="internal">
        <lane id=":15_1_0" index="0" speed="21.72" length="4.82" shape="498.35,3.10 499.18,1.86 500.00,1.45 500.83,1.86 501.65,3.10"/>
    </edge>
    <edge id=":15_2" function="internal">
        <lane id=":15_2_0" index="0" speed="22.22" length="9.50" shape="495.25,0.00 504.75,0.00"/>
    </edge>
    <edge id=":15_3" function="internal">
        <lane id=":15_3_0" index="0" speed="21.97" length="7.85" shape="495.25,0.00 498.05,0.19 500.05,0.77 501.25,1.74 501.65,3.10"/>
    </edge>
    <edge id=":16_0" function="internal">
        <lane id=":16_0_0" index="0" speed="21.72" length="6.20" shape="498.35,53.10 498.35,46.90"/>
    </edge>
    <edge id=":16_1" function="internal">
        <lane id=":16_1_0" index="0" speed="24.75" length="7.85" shape="498.35,53.10 498.75,51.74 499.95,50.77 501.95,50.19 504.75,50.00"/>
    </edge>
    <edge id=":16_2" function="internal">
        <lane id=":16_2_0" index="0" speed="21.72" length="4.82" shape="498.35,53.10 499.18,51.86 500.00,51.45 500.83,51.86 501.65,53.10"/>
    </edge>
    <edge id=":16_3" function="internal">
        <lane id=":16_3_0" index="0" speed="24.75" length="5.00" shape="501.65,46.90 501.84,48.26 502.43,49.23 503.39,49.81 504.75,50.00"/>
    </edge>
    <edge id=":16_4" function="internal">
        <lane id=":16_4_0" index="0" speed="21.72" length="6.20" shape="501.65,46.90 501.65,53.10"/>
    </edge>
    <edge id=":16_5" function="internal">
        <lane id=":16_5_0" index="0" speed="21.72" length="4.82" shape="501.65,46.90 500.83,48.14 500.00,48.55 499.18,48.14 498.35,46.90"/>
    </edge>
    <edge id=":16_6" function="internal">
        <lane id=":16_6_0" index="0" speed="24.75" length="5.00" shape="495.25,50.00 496.61,49.81 497.58,49.23 498.16,48.26 498.35,46.90"/>
    </edge>
    <edge id=":16_7" function="internal">
        <lane id=":16_7_0" index="0" speed="27.78" length="9.50" shape="495.25,50.00 504.75,50.00"/>
    </edge>
    <edge id=":16_8" function="internal">
        <lane id=":16_8_0" index="0" speed="24.75" length="7.85" shape="495.25,50.00 498.05,50.19 500.05,50.77 501.25,51.74 501.65,53.10"/>
    </edge>
    <edge id=":17_0" function="internal">
        <lane id=":17_0_0" index="0" speed="21.97" length="5.00" shape="501.65,96.90 501.84,98.26 502.43,99.23 503.39,99.81 504.75,100.00"/>
    </edge>
    <edge id=":17_1" function="internal">
        <lane id=":17_1_0" index="0" speed="21.72" length="4.82" shape="501.65,96.90 500.83,98.14 500.00,98.55 499.18,98.14 498.35,96.90"/>
    </edge>
    <edge id=":17_2" function="internal">
        <lane id=":17_2_0" index="0" speed="21.97" length="5.00" shape="495.25,100.00 496.61,99.81 497.58,99.23 498.16,98.26 498.35,96.90"/>
    </edge>
    <edge id=":17_3" function="internal">
        <lane id=":17_3_0" index="0" speed="22.22" length="9.50" shape="495.25,100.00 504.75,100.00"/>
    </edge>
    <edge id=":18_0" function="internal">
        <lane id=":18_0_0" index="0" speed="21.97" length="7.85" shape="598.35,3.10 598.75,1.74 599.95,0.77 601.95,0.19 604.75,0.00"/>
    </edge>
    <edge id=":18_1" function="internal">
        <lane id=":18_1_0" index="0" speed="21.72" length="4.82" shape="598.35,3.10 599.18,1.86 600.00,1.45 600.83,1.86 601.65,3.10"/>
    </edge>
    <edge id=":18_2" function="internal">
        <lane id=":18_2_0" index="0" speed="22.22" length="9.50" shape="595.25,0.00 604.75,0.00"/>
    </edge>
    <edge id=":18_3" function="internal">
        <lane id=":18_3_0" index="0" speed="21.97" length="7.85" shape="595.25,0.00 598.05,0.19 600.05,0.77 601.25,1.74 601.65,3.10"/>
    </edge>
    <edge id=":19_0" function="internal">
        <lane id=":19_0_0" index="0" speed="21.72" length="6.20" shape="598.35,53.10 598.35,46.90"/>
    </edge>
    <edge id=":19_1" function="internal">
        <lane id=":19_1_0" index="0" speed="24.75" length="7.85" shape="598.35,53.10 598.75,51.74 599.95,50.77 601.95,50.19 604.75,50.00"/>
    </edge>
    <edge id=":19_2" function="internal">
        <lane id=":19_2_0" index="0" speed="21.72" length="4.82" shape="598.35,53.10 599.18,51.86 600.00,51.45 600.83,51.86 601.65,53.10"/>
    </edge>
    <edge id=":19_3" function="internal">
        <lane id=":19_3_0" index="0" speed="24.75" length="5.00" shape="601.65,46.90 601.84,48.26 602.42,49.23 603.39,49.81 604.75,50.00"/>
    </edge>
    <edge id=":19_4" function="internal">
        <lane id=":19_4_0" index="0" speed="21.72" length="6.20" shape="601.65,46.90 601.65,53.10"/>
    </edge>
    <edge id=":19_5" function="internal">
        <lane id=":19_5_0" index="0" speed="21.72" length="4.82" shape="601.65,46.90 600.82,48.14 600.00,48.55 599.17,48.14 598.35,46.90"/>
    </edge>
    <edge id=":19_6" function="internal">
        <lane id=":19_6_0" index="0" speed="24.75" length="5.00" shape="595.25,50.00 596.61,49.81 597.58,49.23 598.16,48.26 598.35,46.90"/>
    </edge>
    <edge id=":19_7" function="internal">
        <lane id=":19_7_0" index="0" speed="27.78" length="9.50" shape="595.25,50.00 604.75,50.00"/>
    </edge>
    <edge id=":19_8" function="internal">
        <lane id=":19_8_0" index="0" speed="24.75" length="7.85" shape="595.25,50.00 598.05,50.19 600.05,50.77 601.25,51.74 601.65,53.10"/>
    </edge>
    <edge id=":20_0" function="internal">
        <lane id=":20_0_0" index="0" speed="21.97" length="5.00" shape="601.65,96.90 601.84,98.26 602.42,99.23 603.39,99.81 604.75,100.00"/>
    </edge>
    <edge id=":20_1" function="internal">
        <lane id=":20_1_0" index="0" speed="21.72" length="4.82" shape="601.65,96.90 600.82,98.14 600.00,98.55 599.17,98.14 598.35,96.90"/>
    </edge>
    <edge id=":20_2" function="internal">
        <lane id=":20_2_0" index="0" speed="21.97" length="5.00" shape="595.25,100.00 596.61,99.81 597.58,99.23 598.16,98.26 598.35,96.90"/>
    </edge>
    <edge id=":20_3" function="internal">
        <lane id=":20_3_0" index="0" speed="22.22" length="9.50" shape="595.25,100.00 604.75,100.00"/>
    </edge>
    <edge id=":21_0" function="internal">
        <lane id=":21_0_0" index="0" speed="21.97" length="7.85" shape="698.35,3.10 698.75,1.74 699.95,0.77 701.95,0.19 704.75,0.00"/>
    </edge>
    <edge id=":21_1" function="internal">
        <lane id=":21_1_0" index="0" speed="21.72" length="4.82" shape="698.35,3.10 699.18,1.86 700.00,1.45 700.83,1.86 701.65,3.10"/>
    </edge>
    <edge id=":21_2" function="internal">
        <lane id=":21_2_0" index="0" speed="22.22" length="9.50" shape="695.25,0.00 704.75,0.00"/>
    </edge>
    <edge id=":21_3" function="internal">
        <lane id=":21_3_0" index="0" speed="21.97" length="7.85" shape="695.25,0.00 698.05,0.19 700.05,0.77 701.25,1.74 701.65,3.10"/>
    </edge>
    <edge id=":22_0" function="internal">
        <lane id=":22_0_0" index="0" speed="21.72" length="6.20" shape="698.35,53.10 698.35,46.90"/>
    </edge>
    <edge id=":22_1" function="internal">
        <lane id=":22_1_0" index="0" speed="24.75" length="7.85" shape="698.35,53.10 698.75,51.74 699.95,50.77 701.95,50.19 704.75,50.00"/>
    </edge>
    <edge id=":22_2" function="internal">
        <lane id=":22_2_0" index="0" speed="21.72" length="4.82" shape="698.35,53.10 699.18,51.86 700.00,51.45 700.83,51.86 701.65,53.10"/>
    </edge>
    <edge id=":22_3" function="internal">
        <lane id=":22_3_0" index="0" speed="24.75" length="5.00" shape="701.65,46.90 701.84,48.26 702.42,49.23 703.39,49.81 704.75,50.00"/>
    </edge>
    <edge id=":22_4" function="internal">
        <lane id=":22_4_0" index="0" speed="21.72" length="6.20" shape="701.65,46.90 701.65,53.10"/>
    </edge>
    <edge id=":22_5" function="internal">
        <lane id=":22_5_0" index="0" speed="21.72" length="4.82" shape="701.65,46.90 700.82,48.14 700.00,48.55 699.17,48.14 698.35,46.90"/>
    </edge>
    <edge id=":22_6" function="internal">
        <lane id=":22_6_0" index="0" speed="24.75" length="5.00" shape="695.25,50.00 696.61,49.81 697.57,49.23 698.16,48.26 698.35,46.90"/>
    </edge>
    <edge id=":22_7" function="internal">
        <lane id=":22_7_0" index="0" speed="27.78" length="9.50" shape="695.25,50.00 704.75,50.00"/>
    </edge>
    <edge id=":22_8" function="internal">
        <lane id=":22_8_0" index="0" speed="24.75" length="7.85" shape="695.25,50.00 698.05,50.19 700.05,50.77 701.25,51.74 701.65,53.10"/>
    </edge>
    <edge id=":23_0" function="internal">
        <lane id=":23_0_0" index="0" speed="21.97" length="5.00" shape="701.65,96.90 701.84,98.26 702.42,99.23 703.39,99.81 704.75,100.00"/>
    </edge>
    <edge id=":23_1" function="internal">
        <lane id=":23_1_0" index="0" speed="21.72" length="4.82" shape="701.65,96.90 700.82,98.14 700.00,98.55 699.17,98.14 698.35,96.90"/>
    </edge>
    <edge id=":23_2" function="internal">
        <lane id=":23_2_0" index="0" speed="21.97" length="5.00" shape="695.25,100.00 696.61,99.81 697.57,99.23 698.16,98.26 698.35,96.90"/>
    </edge>
    <edge id=":23_3" function="internal">
        <lane id=":23_3_0" index="0" speed="22.22" length="9.50" shape="695.25,100.00 704.75,100.00"/>
    </edge>
    <edge id=":24_0" function="internal">
        <lane id=":24_0_0" index="0" speed="21.97" length="7.85" shape="798.35,3.10 798.75,1.74 799.95,0.77 801.95,0.19 804.75,0.00"/>
    </edge>
    <edge id=":24_1" function="internal">
        <lane id=":24_1_0" index="0" speed="21.72" length="4.82" shape="798.35,3.10 799.18,1.86 800.00,1.45 800.83,1.86 801.65,3.10"/>
    </edge>
    <edge id=":24_2" function="internal">
        <lane id=":24_2_0" index="0" speed="22.22" length="9.50" shape="795.25,0.00 804.75,0.00"/>
    </edge>
    <edge id=":24_3" function="internal">
        <lane id=":24_3_0" index="0" speed="21.97" length="7.85" shape="795.25,0.00 798.05,0.19 800.05,0.77 801.25,1.74 801.65,3.10"/>
    </edge>
    <edge id=":25_0" function="internal">
        <lane id=":25_0_0" index="0" speed="21.72" length="6.20" shape="798.35,53.10 798.35,46.90"/>
    </edge>
    <edge id=":25_1" function="internal">
        <lane id=":25_1_0" index="0" speed="24.75" length="7.85" shape="798.35,53.10 798.75,51.74 799.95,50.77 801.95,50.19 804.75,50.00"/>
    </edge>
    <edge id=":25_2" function="internal">
        <lane id=":25_2_0" index="0" speed="21.72" length="4.82" shape="798.35,53.10 799.18,51.86 800.00,51.45 800.83,51.86 801.65,53.10"/>
    </edge>
    <edge id=":25_3" function="internal">
        <lane id=":25_3_0" index="0" speed="24.75" length="5.00" shape="801.65,46.90 801.84,48.26 802.42,49.23 803.39,49.81 804.75,50.00"/>
    </edge>
    <edge id=":25_4" function="internal">
        <lane id=":25_4_0" index="0" speed="21.72" length="6.20" shape="801.65,46.90 801.65,53.10"/>
    </edge>
    <edge id=":25_5" function="internal">
        <lane id=":25_5_0" index="0" speed="21.72" length="4.82" shape="801.65,46.90 800.82,48.14 800.00,48.55 799.17,48.14 798.35,46.90"/>
    </edge>
    <edge id=":25_6" function="internal">
        <lane id=":25_6_0" index="0" speed="24.75" length="5.00" shape="795.25,50.00 796.61,49.81 797.57,49.23 798.16,48.26 798.35,46.90"/>
    </edge>
    <edge id=":25_7" function="internal">
        <lane id=":25_7_0" index="0" speed="27.78" length="9.50" shape="795.25,50.00 804.75,50.00"/>
    </edge>
    <edge id=":25_8" function="internal">
        <lane id=":25_8_0" index="0" speed="24.75" length="7.85" shape="795.25,50.00 798.05,50.19 800.05,50.77 801.25,51.74 801.65,53.10"/>
    </edge>
    <edge id=":26_0" function="internal">
        <lane id=":26_0_0" index="0" speed="21.97" length="5.00" shape="801.65,96.90 801.84,98.26 802.42,99.23 803.39,99.81 804.75,100.00"/>
    </edge>
    <edge id=":26_1" function="internal">
        <lane id=":26_1_0" index="0" speed="21.72" length="4.82" shape="801.65,96.90 800.82,98.14 800.00,98.55 799.17,98.14 798.35,96.90"/>
    </edge>
    <edge id=":26_2" function="internal">
        <lane id=":26_2_0" index="0" speed="21.97" length="5.00" shape="795.25,100.00 796.61,99.81 797.57,99.23 798.16,98.26 798.35,96.90"/>
    </edge>
    <edge id=":26_3" function="internal">
        <lane id=":26_3_0" index="0" speed="22.22" length="9.50" shape="795.25,100.00 804.75,100.00"/>
    </edge>
    <edge id=":27_0" function="internal">
        <lane id=":27_0_0" index="0" speed="21.97" length="7.85" shape="898.35,3.10 898.75,1.74 899.95,0.77 901.95,0.19 904.75,0.00"/>
    </edge>
    <edge id=":27_1" function="internal">
        <lane id=":27_1_0" index="0" speed="21.72" length="4.82" shape="898.35,3.10 899.18,1.86 900.00,1.45 900.83,1.86 901.65,3.10"/>
    </edge>
    <edge id=":27_2" function="internal">
        <lane id=":27_2_0" index="0" speed="22.22" length="9.50" shape="895.25,0.00 904.75,0.00"/>
    </edge>
    <edge id=":27_3" function="internal">
        <lane id=":27_3_0" index="0" speed="21.97" length="7.85" shape="895.25,0.00 898.05,0.19 900.05,0.77 901.25,1.74 901.65,3.10"/>
    </edge>
    <edge id=":28_0" function="internal">
        <lane id=":28_0_0" index="0" speed="21.72" length="6.20" shape="898.35,53.10 898.35,46.90"/>
    </edge>
    <edge id=":28_1" function="internal">
        <lane id=":28_1_0" index="0" speed="24.75" length="7.85" shape="898.35,53.10 898.75,51.74 899.95,50.77 901.95,50.19 904.75,50.00"/>
    </edge>
    <edge id=":28_2" function="internal">
        <lane id=":28_2_0" index="0" speed="21.72" length="4.82" shape="898.35,53.10 899.18,51.86 900.00,51.45 900.83,51.86 901.65,53.10"/>
    </edge>
    <edge id=":28_3" function="internal">
        <lane id=":28_3_0" index="0" speed="24.75" length="5.00" shape="901.65,46.90 901.84,48.26 902.42,49.23 903.39,49.81 904.75,50.00"/>
    </edge>
    <edge id=":28_4" function="internal">
        <lane id=":28_4_0" index="0" speed="21.72" length="6.20" shape="901.65,46.90 901.65,53.10"/>
    </edge>
    <edge id=":28_5" function="internal">
        <lane id=":28_5_0" index="0" speed="21.72" length="4.82" shape="901.65,46.90 900.82,48.14 900.00,48.55 899.17,48.14 898.35,46.90"/>
    </edge>
    <edge id=":28_6" function="internal">
        <lane id=":28_6_0" index="0" speed="24.75" length="5.00" shape="895.25,50.00 896.61,49.81 897.57,49.23 898.16,48.26 898.35,46.90"/>
    </edge>
    <edge id=":28_7" function="internal">
        <lane id=":28_7_0" index="0" speed="27.78" length="9.50" shape="895.25,50.00 904.75,50.00"/>
    </edge>
    <edge id=":28_8" function="internal">
        <lane id=":28_8_0" index="0" speed="24.75" length="7.85" shape="895.25,50.00 898.05,50.19 900.05,50.77 901.25,51.74 901.65,53.10"/>
    </edge>
    <edge id=":29_0" function="internal">
        <lane id=":29_0_0" index="0" speed="21.97" length="5.00" shape="901.65,96.90 901.84,98.26 902.42,99.23 903.39,99.81 904.75,100.00"/>
    </edge>
    <edge id=":29_1" function="internal">
        <lane id=":29_1_0" index="0" speed="21.72" length="4.82" shape="901.65,96.90 900.82,98.14 900.00,98.55 899.17,98.14 898.35,96.90"/>
    </edge>
    <edge id=":29_2" function="internal">
        <lane id=":29_2_0" index="0" speed="21.97" length="5.00" shape="895.25,100.00 896.61,99.81 897.57,99.23 898.16,98.26 898.35,96.90"/>
    </edge>
    <edge id=":29_3" function="internal">
        <lane id=":29_3_0" index="0" speed="22.22" length="9.50" shape="895.25,100.00 904.75,100.00"/>
    </edge>
    <edge id=":3_0" function="internal">
        <lane id=":3_0_0" index="0" speed="21.97" length="7.85" shape="98.35,3.10 98.75,1.74 99.95,0.77 101.95,0.19 104.75,0.00"/>
    </edge>
    <edge id=":3_1" function="internal">
        <lane id=":3_1_0" index="0" speed="21.72" length="4.82" shape="98.35,3.10 99.18,1.86 100.00,1.45 100.83,1.86 101.65,3.10"/>
    </edge>
    <edge id=":30_0" function="internal">
        <lane id=":30_0_0" index="0" speed="21.72" length="4.82" shape="998.35,3.10 999.17,1.86 1000.00,1.45 1000.83,1.86 1001.65,3.10"/>
    </edge>
    <edge id=":30_1" function="internal">
        <lane id=":30_1_0" index="0" speed="21.97" length="7.85" shape="995.25,0.00 998.05,0.19 1000.05,0.77 1001.25,1.74 1001.65,3.10"/>
    </edge>
    <edge id=":31_0" function="internal">
        <lane id=":31_0_0" index="0" speed="21.72" length="6.20" shape="998.35,53.10 998.35,46.90"/>
    </edge>
    <edge id=":31_1" function="internal">
        <lane id=":31_1_0" index="0" speed="24.75" length="7.85" shape="998.35,53.10 998.75,51.74 999.95,50.77 1001.95,50.19 1004.75,50.00"/>
    </edge>
    <edge id=":31_2" function="internal">
        <lane id=":31_2_0" index="0" speed="21.72" length="4.82" shape="998.35,53.10 999.17,51.86 1000.00,51.45 1000.83,51.86 1001.65,53.10"/>
    </edge>
    <edge id=":31_3" function="internal">
        <lane id=":31_3_0" index="0" speed="24.75" length="5.00" shape="1001.65,46.90 1001.84,48.26 1002.42,49.23 1003.39,49.81 1004.75,50.00"/>
    </edge>
    <edge id=":31_4" function="internal">
        <lane id=":31_4_0" index="0" speed="21.72" length="6.20" shape="1001.65,46.90 1001.65,53.10"/>
    </edge>
    <edge id=":31_5" function="internal">
        <lane id=":31_5_0" index="0" speed="21.72" length="4.82" shape="1001.65,46.90 1000.83,48.14 1000.00,48.55 999.17,48.14 998.35,46.90"/>
    </edge>
    <edge id=":31_6" function="internal">
        <lane id=":31_6_0" index="0" speed="24.75" length="5.00" shape="995.25,50.00 996.61,49.81 997.57,49.23 998.16,48.26 998.35,46.90"/>
    </edge>
    <edge id=":31_7" function="internal">
        <lane id=":31_7_0" index="0" speed="27.78" length="9.50" shape="995.25,50.00 1004.75,50.00"/>
    </edge>
    <edge id=":31_8" function="internal">
        <lane id=":31_8_0" index="0" speed="24.75" length="7.85" shape="995.25,50.00 998.05,50.19 1000.05,50.77 1001.25,51.74 1001.65,53.10"/>
    </edge>
    <edge id=":32_0" function="internal">
        <lane id=":32_0_0" index="0" speed="21.72" length="4.82" shape="1001.65,96.90 1000.83,98.14 1000.00,98.55 999.17,98.14 998.35,96.90"/>
    </edge>
    <edge id=":32_1" function="internal">
        <lane id=":32_1_0" index="0" speed="21.97" length="5.00" shape="995.25,100.00 996.61,99.81 997.57,99.23 998.16,98.26 998.35,96.90"/>
    </edge>
    <edge id=":4_0" function="internal">
        <lane id=":4_0_0" index="0" speed="21.72" length="6.20" shape="98.35,53.10 98.35,46.90"/>
    </edge>
    <edge id=":4_1" function="internal">
        <lane id=":4_1_0" index="0" speed="24.75" length="7.85" shape="98.35,53.10 98.75,51.74 99.95,50.77 101.95,50.19 104.75,50.00"/>
    </edge>
    <edge id=":4_2" function="internal">
        <lane id=":4_2_0" index="0" speed="21.72" length="4.82" shape="98.35,53.10 99.18,51.86 100.00,51.45 100.83,51.86 101.65,53.10"/>
    </edge>
    <edge id=":4_3" function="internal">
        <lane id=":4_3_0" index="0" speed="24.75" length="5.00" shape="101.65,46.90 101.84,48.26 102.43,49.23 103.39,49.81 104.75,50.00"/>
    </edge>
    <edge id=":4_4" function="internal">
        <lane id=":4_4_0" index="0" speed="21.72" length="6.20" shape="101.65,46.90 101.65,53.10"/>
    </edge>
    <edge id=":4_5" function="internal">
        <lane id=":4_5_0" index="0" speed="21.72" length="4.82" shape="101.65,46.90 100.82,48.14 100.00,48.55 99.18,48.14 98.35,46.90"/>
    </edge>
    <edge id=":4_6" function="internal">
        <lane id=":4_6_0" index="0" speed="24.75" length="5.00" shape="95.25,50.00 96.61,49.81 97.58,49.23 98.16,48.26 98.35,46.90"/>
    </edge>
    <edge id=":4_7" function="internal">
        <lane id=":4_7_0" index="0" speed="27.78" length="9.50" shape="95.25,50.00 104.75,50.00"/>
    </edge>
    <edge id=":4_8" function="internal">
        <lane id=":4_8_0" index="0" speed="24.75" length="7.85" shape="95.25,50.00 98.05,50.19 100.05,50.77 101.25,51.74 101.65,53.10"/>
    </edge>
    <edge id=":5_0" function="internal">
        <lane id=":5_0_0" index="0" speed="21.97" length="5.00" shape="101.65,96.90 101.84,98.26 102.43,99.23 103.39,99.81 104.75,100.00"/>
    </edge>
    <edge id=":5_1" function="internal">
        <lane id=":5_1_0" index="0" speed="21.72" length="4.82" shape="101.65,96.90 100.82,98.14 100.00,98.55 99.18,98.14 98.35,96.90"/>
    </edge>
    <edge id=":6_0" function="internal">
        <lane id=":6_0_0" index="0" speed="21.97" length="7.85" shape="198.35,3.10 198.75,1.74 199.95,0.77 201.95,0.19 204.75,0.00"/>
    </edge>
    <edge id=":6_1" function="internal">
        <lane id=":6_1_0" index="0" speed="21.72" length="4.82" shape="198.35,3.10 199.17,1.86 200.00,1.45 200.82,1.86 201.65,3.10"/>
    </edge>
    <edge id=":6_2" function="internal">
        <lane id=":6_2_0" index="0" speed="22.22" length="9.50" shape="195.25,0.00 204.75,0.00"/>
    </edge>
    <edge id=":6_3" function="internal">
        <lane id=":6_3_0" index="0" speed="21.97" length="7.85" shape="195.25,0.00 198.05,0.19 200.05,0.77 201.25,1.74 201.65,3.10"/>
    </edge>
    <edge id=":7_0" function="internal">
        <lane id=":7_0_0" index="0" speed="21.72" length="6.20" shape="198.35,53.10 198.35,46.90"/>
    </edge>
    <edge id=":7_1" function="internal">
        <lane id=":7_1_0" index="0" speed="24.75" length="7.85" shape="198.35,53.10 198.75,51.74 199.95,50.77 201.95,50.19 204.75,50.00"/>
    </edge>
    <edge id=":7_2" function="internal">
        <lane id=":7_2_0" index="0" speed="21.72" length="4.82" shape="198.35,53.10 199.17,51.86 200.00,51.45 200.82,51.86 201.65,53.10"/>
    </edge>
    <edge id=":7_3" function="internal">
        <lane id=":7_3_0" index="0" speed="24.75" length="5.00" shape="201.65,46.90 201.84,48.26 202.43,49.23 203.39,49.81 204.75,50.00"/>
    </edge>
    <edge id=":7_4" function="internal">