<!--
// Copyright (C) 2011 Christoph Sommer <sommer@ccs-labs.org>
//
// Documentation for these modules is at http://veins.car2x.org/
//
// SPDX-License-Identifier: (GPL-2.0-or-later OR CC-BY-SA-4.0)
//
// This program is free software; you can redistribute it and/or modify
// it under the terms of the GNU General Public License as published by
// the Free Software Foundation; either version 2 of the License, or
// (at your option) any later version.
//
// This program is distributed in the hope that it will be useful,
// but WITHOUT ANY WARRANTY; without even the implied warranty of
// MERCHANTABILITY or FITNESS FOR A PARTICULAR PURPOSE.  See the
// GNU General Public License for more details.
//
// You should have received a copy of the GNU General Public License
// along with this program; if not, write to the Free Software
// Foundation, Inc., 59 Temple Place, Suite 330, Boston, MA  02111-1307  USA
//
// -
//
// At your option, you can also redistribute and/or modify this file
// under a
// Creative Commons Attribution-ShareAlike 4.0 International License.
//
// You should have received a copy of the license along with this
// work.  If not, see <http://creativecommons.org/licenses/by-sa/4.0/>.
-->

<routes>
     <vType id="vtype0" accel="3" decel="9.81" width="1.8" height="1.5" sigma="0.5" length="2.5" minGap="2.5" maxSpeed="70"/>
     <route id="route0" multi_ref="x" edges="25 28 31 34 37 40 43 46 49 52 55 "></route>
     <flow id="flow0" type="vtype0" route="route0" begin="0" period="5" number="10" departSpeed="max"/>
</routes>
