<?xml version="1.0" encoding="UTF-8"?>

<!-- generated on Thu Mar 26 16:23:52 2015 by SUMO netconvert Version dev-SVN-r18156I
This data file and the accompanying materials
are made available under the terms of the Eclipse Public License v2.0
which accompanies this distribution, and is available at
http://www.eclipse.org/legal/epl-v20.html
SPDX-License-Identifier: EPL-2.0
<configuration xmlns:xsi="http://www.w3.org/2001/XMLSchema-instance" xsi:noNamespaceSchemaLocation="http://sumo.dlr.de/xsd/netconvertConfiguration.xsd">

    <input>
        <node-files value="./complex/tutorial/quickstart/data/quickstart.nod.xml"/>
        <edge-files value="./complex/tutorial/quickstart/data/quickstart.edg.xml"/>
        <connection-files value="./complex/tutorial/quickstart/data/quickstart.con.xml"/>
        <type-files value="./complex/tutorial/quickstart/data/quickstart.typ.xml"/>
    </input>

    <output>
        <output-file value="./complex/tutorial/quickstart/data/quickstart.net.xml"/>
    </output>

    <processing>
        <no-turnarounds value="true"/>
    </processing>

    <report>
        <verbose value="true"/>
    </report>

</configuration>
-->

<net version="0.13" xmlns:xsi="http://www.w3.org/2001/XMLSchema-instance" xsi:noNamespaceSchemaLocation="http://sumo.dlr.de/xsd/net_file.xsd">

    <location netOffset="1000.00,0.00" convBoundary="0.00,0.00,4000.00,1000.00" origBoundary="-1000.00,0.00,3000.00,1000.00" projParameter="!"/>

    <edge id=":1_0" function="internal">
        <lane id=":1_0_0" index="0" speed="13.89" length="3.00" shape="1001.50,1008.25 998.50,1008.25"/>
        <lane id=":1_0_1" index="1" speed="13.89" length="3.00" shape="1001.50,1004.95 998.50,1004.95"/>
        <lane id=":1_0_2" index="2" speed="13.89" length="3.00" shape="1001.50,1001.65 998.50,1001.65"/>
    </edge>
    <edge id=":1_3" function="internal">
        <lane id=":1_3_0" index="0" speed="13.89" length="3.49" shape="998.50,995.05 1001.50,991.75"/>
        <lane id=":1_3_1" index="1" speed="13.89" length="3.49" shape="998.50,995.05 1001.50,995.05"/>
        <lane id=":1_3_2" index="2" speed="13.89" length="3.49" shape="998.50,998.35 1001.50,998.35"/>
    </edge>
    <edge id=":2_0" function="internal">
        <lane id=":2_0_0" index="0" speed="13.89" length="3.00" shape="1001.50,8.25 998.50,8.25"/>
        <lane id=":2_0_1" index="1" speed="13.89" length="3.00" shape="1001.50,4.95 998.50,4.95"/>
        <lane id=":2_0_2" index="2" speed="13.89" length="3.00" shape="1001.50,1.65 998.50,1.65"/>
    </edge>
    <edge id=":2_3" function="internal">
        <lane id=":2_3_0" index="0" speed="13.89" length="3.97" shape="998.50,-4.95 1001.50,-8.25"/>
        <lane id=":2_3_1" index="1" speed="13.89" length="3.97" shape="998.50,-1.65 1001.50,-4.95"/>
        <lane id=":2_3_2" index="2" speed="13.89" length="3.97" shape="998.50,-1.65 1001.50,-1.65"/>
    </edge>
    <edge id=":3_0" function="internal">
        <lane id=":3_0_0" index="0" speed="13.89" length="5.00" shape="1991.75,11.35 1991.56,9.99 1990.97,9.02 1990.01,8.44 1988.65,8.25"/>
    </edge>
    <edge id=":3_1" function="internal">
        <lane id=":3_1_0" index="0" speed="13.89" length="23.63" shape="1995.05,11.35 1996.07,4.22 1999.12,-0.88 2004.22,-3.93 2011.35,-4.95"/>
        <lane id=":3_1_1" index="1" speed="13.89" length="23.63" shape="1998.35,11.35 1999.16,5.66 2001.60,1.60 2005.66,-0.84 2011.35,-1.65"/>
    </edge>
    <edge id=":3_3" function="internal">
        <lane id=":3_3_0" index="0" speed="13.89" length="9.47" shape="2011.35,8.25 2009.99,8.44 2009.03,9.02 2008.44,9.99 2008.25,11.35"/>
        <lane id=":3_3_1" index="1" speed="13.89" length="9.47" shape="2011.35,4.95 2008.55,5.35 2006.55,6.55 2005.35,8.55 2004.95,11.35"/>
        <lane id=":3_3_2" index="2" speed="13.89" length="9.47" shape="2011.35,4.95 2007.11,5.35 2004.07,6.55 2002.26,8.55 2001.65,11.35"/>
    </edge>
    <edge id=":3_6" function="internal">
        <lane id=":3_6_0" index="0" speed="13.89" length="22.81" shape="2011.35,4.95 2004.58,5.47 2000.00,6.60 1995.42,7.73 1988.65,8.25"/>
        <lane id=":3_6_1" index="1" speed="13.89" length="22.81" shape="2011.35,4.95 2004.61,4.95 2000.00,4.95 1995.39,4.95 1988.65,4.95"/>
        <lane id=":3_6_2" index="2" speed="13.89" length="22.81" shape="2011.35,1.65 2004.61,1.65 2000.00,1.65 1995.39,1.65 1988.65,1.65"/>
    </edge>
    <edge id=":3_9" function="internal">
        <lane id=":3_9_0" index="0" speed="13.89" length="22.81" shape="1988.65,-8.25 1995.39,-8.25 2000.00,-8.25 2004.61,-8.25 2011.35,-8.25"/>
        <lane id=":3_9_1" index="1" speed="13.89" length="22.81" shape="1988.65,-4.95 1995.39,-4.95 2000.00,-4.95 2004.61,-4.95 2011.35,-4.95"/>
        <lane id=":3_9_2" index="2" speed="13.89" length="22.81" shape="1988.65,-4.95 1995.42,-4.43 2000.00,-3.30 2004.58,-2.17 2011.35,-1.65"/>
    </edge>
    <edge id=":3_12" function="internal">
        <lane id=":3_12_0" index="0" speed="13.89" length="12.77" shape="1988.65,-4.95 1997.23,-3.93 2003.35,-0.88 2004.02,0.05"/>
        <lane id=":3_12_1" index="1" speed="13.89" length="12.77" shape="1988.65,-4.95 1995.78,-3.93 2000.88,-0.88 2001.43,0.05"/>
        <lane id=":3_12_2" index="2" speed="13.89" length="12.77" shape="1988.65,-1.65 1994.34,-0.84 1995.82,0.05"/>
    </edge>
    <edge id=":3_15" function="internal">
        <lane id=":3_15_0" index="0" speed="13.89" length="12.38" shape="2004.02,0.05 2007.03,4.22 2008.25,11.35"/>
    </edge>
    <edge id=":3_16" function="internal">
        <lane id=":3_16_0" index="0" speed="13.89" length="12.07" shape="2001.43,0.05 2003.93,4.22 2004.95,11.35"/>
    </edge>
    <edge id=":3_17" function="internal">
        <lane id=":3_17_0" index="0" speed="13.89" length="13.50" shape="1995.82,0.05 1998.40,1.60 2000.84,5.66 2001.65,11.35"/>
    </edge>
    <edge id=":4_0" function="internal">
        <lane id=":4_0_0" index="0" speed="13.89" length="3.97" shape="3001.50,4.95 2998.50,8.25"/>
        <lane id=":4_0_1" index="1" speed="13.89" length="3.97" shape="3001.50,1.65 2998.50,4.95"/>
        <lane id=":4_0_2" index="2" speed="13.89" length="3.97" shape="3001.50,1.65 2998.50,1.65"/>
    </edge>
    <edge id=":4_3" function="internal">
        <lane id=":4_3_0" index="0" speed="13.89" length="3.00" shape="2998.50,-8.25 3001.50,-8.25"/>
        <lane id=":4_3_1" index="1" speed="13.89" length="3.00" shape="2998.50,-4.95 3001.50,-4.95"/>
        <lane id=":4_3_2" index="2" speed="13.89" length="3.00" shape="2998.50,-1.65 3001.50,-1.65"/>
    </edge>
    <edge id=":5_0" function="internal">
        <lane id=":5_0_0" index="0" speed="13.89" length="3.97" shape="3001.50,1004.95 2998.50,1008.25"/>
        <lane id=":5_0_1" index="1" speed="13.89" length="3.97" shape="3001.50,1001.65 2998.50,1004.95"/>
        <lane id=":5_0_2" index="2" speed="13.89" length="3.97" shape="3001.50,1001.65 2998.50,1001.65"/>
    </edge>
    <edge id=":5_3" function="internal">
        <lane id=":5_3_0" index="0" speed="13.89" length="3.00" shape="2998.50,991.75 3001.50,991.75"/>
        <lane id=":5_3_1" index="1" speed="13.89" length="3.00" shape="2998.50,995.05 3001.50,995.05"/>
        <lane id=":5_3_2" index="2" speed="13.89" length="3.00" shape="2998.50,998.35 3001.50,998.35"/>
    </edge>
    <edge id=":6_0" function="internal">
        <lane id=":6_0_0" index="0" speed="13.89" length="22.81" shape="2011.35,1008.25 2004.61,1008.25 2000.00,1008.25 1995.39,1008.25 1988.65,1008.25"/>
        <lane id=":6_0_1" index="1" speed="13.89" length="22.81" shape="2011.35,1004.95 2004.61,1004.95 2000.00,1004.95 1995.39,1004.95 1988.65,1004.95"/>
        <lane id=":6_0_2" index="2" speed="13.89" length="22.81" shape="2011.35,1004.95 2004.58,1004.43 2000.00,1003.30 1995.42,1002.17 1988.65,1001.65"/>
    </edge>
    <edge id=":6_3" function="internal">
        <lane id=":6_3_0" index="0" speed="13.89" length="10.85" shape="2011.35,1004.95 2004.22,1003.93 1999.12,1000.88 1998.57,999.95"/>
        <lane id=":6_3_1" index="1" speed="13.89" length="10.85" shape="2011.35,1001.65 2005.66,1000.84 2004.18,999.95"/>
    </edge>
    <edge id=":6_14" function="internal">
        <lane id=":6_14_0" index="0" speed="13.89" length="12.07" shape="1998.57,999.95 1996.07,995.78 1995.05,988.65"/>
    </edge>
    <edge id=":6_15" function="internal">
        <lane id=":6_15_0" index="0" speed="13.89" length="13.50" shape="2004.18,999.95 2001.60,998.40 1999.16,994.34 1998.35,988.65"/>
    </edge>
    <edge id=":6_5" function="internal">
        <lane id=":6_5_0" index="0" speed="13.89" length="9.47" shape="2008.25,988.65 2008.44,990.01 2009.03,990.98 2009.99,991.56 2011.35,991.75"/>
        <lane id=":6_5_1" index="1" speed="13.89" length="9.47" shape="2004.95,988.65 2005.35,991.45 2006.55,993.45 2008.55,994.65 2011.35,995.05"/>
        <lane id=":6_5_2" index="2" speed="13.89" length="9.47" shape="2004.95,988.65 2005.35,992.89 2006.55,995.92 2008.55,997.74 2011.35,998.35"/>
    </edge>
    <edge id=":6_8" function="internal">
        <lane id=":6_8_0" index="0" speed="13.89" length="20.97" shape="2001.65,988.65 2000.84,994.34 1998.40,998.40 1994.34,1000.84 1988.65,1001.65"/>
    </edge>
    <edge id=":6_9" function="internal">
        <lane id=":6_9_0" index="0" speed="13.89" length="7.66" shape="1988.65,991.75 1990.01,991.56 1990.97,990.98 1991.56,990.01 1991.75,988.65"/>
        <lane id=":6_9_1" index="1" speed="13.89" length="7.66" shape="1988.65,995.05 1991.45,994.65 1993.45,993.45 1994.65,991.45 1995.05,988.65"/>
    </edge>
    <edge id=":6_11" function="internal">
        <lane id=":6_11_0" index="0" speed="13.89" length="22.81" shape="1988.65,995.05 1995.42,994.53 2000.00,993.40 2004.58,992.27 2011.35,991.75"/>
        <lane id=":6_11_1" index="1" speed="13.89" length="22.81" shape="1988.65,995.05 1995.39,995.05 2000.00,995.05 2004.61,995.05 2011.35,995.05"/>
        <lane id=":6_11_2" index="2" speed="13.89" length="22.81" shape="1988.65,998.35 1995.39,998.35 2000.00,998.35 2004.61,998.35 2011.35,998.35"/>
    </edge>
    <edge id=":911_0" function="internal">
        <lane id=":911_0_0" index="0" speed="13.89" length="0.10" shape="500.00,1008.25 500.00,1008.25"/>
        <lane id=":911_0_1" index="1" speed="13.89" length="0.10" shape="500.00,1004.95 500.00,1004.95"/>
        <lane id=":911_0_2" index="2" speed="13.89" length="0.10" shape="500.00,1001.65 500.00,1001.65"/>
    </edge>
    <edge id=":911_3" function="internal">
        <lane id=":911_3_0" index="0" speed="13.89" length="0.10" shape="500.00,995.05 500.00,995.05"/>
        <lane id=":911_3_1" index="1" speed="13.89" length="0.10" shape="500.00,998.35 500.00,998.35"/>
    </edge>
    <edge id=":912_0" function="internal">
        <lane id=":912_0_0" index="0" speed="13.89" length="0.10" shape="500.00,8.25 500.00,8.25"/>
        <lane id=":912_0_1" index="1" speed="13.89" length="0.10" shape="500.00,4.95 500.00,4.95"/>
        <lane id=":912_0_2" index="2" speed="13.89" length="0.10" shape="500.00,1.65 500.00,1.65"/>
    </edge>
    <edge id=":912_3" function="internal">
        <lane id=":912_3_0" index="0" speed="13.89" length="0.10" shape="500.00,-4.95 500.00,-4.95"/>
        <lane id=":912_3_1" index="1" speed="13.89" length="0.10" shape="500.00,-1.65 500.00,-1.65"/>
    </edge>
    <edge id=":913_0" function="internal">
        <lane id=":913_0_0" index="0" speed="13.89" length="0.10" shape="3500.00,4.95 3500.00,4.95"/>
        <lane id=":913_0_1" index="1" speed="13.89" length="0.10" shape="3500.00,1.65 3500.00,1.65"/>
    </edge>
    <edge id=":913_2" function="internal">
        <lane id=":913_2_0" index="0" speed="13.89" length="0.10" shape="3500.00,-8.25 3500.00,-8.25"/>
        <lane id=":913_2_1" index="1" speed="13.89" length="0.10" shape="3500.00,-4.95 3500.00,-4.95"/>
        <lane id=":913_2_2" index="2" speed="13.89" length="0.10" shape="3500.00,-1.65 3500.00,-1.65"/>
    </edge>
    <edge id=":914_0" function="internal">
        <lane id=":914_0_0" index="0" speed="13.89" length="0.10" shape="3500.00,1004.95 3500.00,1004.95"/>
        <lane id=":914_0_1" index="1" speed="13.89" length="0.10" shape="3500.00,1001.65 3500.00,1001.65"/>
    </edge>
    <edge id=":914_2" function="internal">
        <lane id=":914_2_0" index="0" speed="13.89" length="0.10" shape="3500.00,991.75 3500.00,991.75"/>
        <lane id=":914_2_1" index="1" speed="13.89" length="0.10" shape="3500.00,995.05 3500.00,995.05"/>
        <lane id=":914_2_2" index="2" speed="13.89" length="0.10" shape="3500.00,998.35 3500.00,998.35"/>
    </edge>

    <edge id="D1" from="911" to="91" priority="3" type="a">
        <lane id="D1_0" index="0" speed="13.89" length="500.00" shape="500.00,1008.25 0.00,1008.25"/>
        <lane id="D1_1" index="1" speed="13.89" length="500.00" shape="500.00,1004.95 0.00,1004.95"/>
        <lane id="D1_2" index="2" speed="13.89" length="500.00" shape="500.00,1001.65 0.00,1001.65"/>
    </edge>
    <edge id="D2" from="91" to="911" priority="3" type="b">
        <lane id="D2_0" index="0" speed="13.89" length="500.00" shape="0.00,995.05 500.00,995.05"/>
        <lane id="D2_1" index="1" speed="13.89" length="500.00" shape="0.00,998.35 500.00,998.35"/>
    </edge>
    <edge id="D3" from="912" to="92" priority="3" type="a">
        <lane id="D3_0" index="0" speed="13.89" length="500.00" shape="500.00,8.25 0.00,8.25"/>
        <lane id="D3_1" index="1" speed="13.89" length="500.00" shape="500.00,4.95 0.00,4.95"/>
        <lane id="D3_2" index="2" speed="13.89" length="500.00" shape="500.00,1.65 0.00,1.65"/>
    </edge>
    <edge id="D4" from="92" to="912" priority="3" type="b">
        <lane id="D4_0" index="0" speed="13.89" length="500.00" shape="0.00,-4.95 500.00,-4.95"/>
        <lane id="D4_1" index="1" speed="13.89" length="500.00" shape="0.00,-1.65 500.00,-1.65"/>
    </edge>
    <edge id="D5" from="913" to="93" priority="3" type="a">
        <lane id="D5_0" index="0" speed="13.89" length="500.00" shape="3500.00,-8.25 4000.00,-8.25"/>
        <lane id="D5_1" index="1" speed="13.89" length="500.00" shape="3500.00,-4.95 4000.00,-4.95"/>
        <lane id="D5_2" index="2" speed="13.89" length="500.00" shape="3500.00,-1.65 4000.00,-1.65"/>
    </edge>
    <edge id="D6" from="93" to="913" priority="3" type="b">
        <lane id="D6_0" index="0" speed="13.89" length="500.00" shape="4000.00,4.95 3500.00,4.95"/>
        <lane id="D6_1" index="1" speed="13.89" length="500.00" shape="4000.00,1.65 3500.00,1.65"/>
    </edge>
    <edge id="D7" from="914" to="94" priority="3" type="a">
        <lane id="D7_0" index="0" speed="13.89" length="500.00" shape="3500.00,991.75 4000.00,991.75"/>
        <lane id="D7_1" index="1" speed="13.89" length="500.00" shape="3500.00,995.05 4000.00,995.05"/>
        <lane id="D7_2" index="2" speed="13.89" length="500.00" shape="3500.00,998.35 4000.00,998.35"/>
    </edge>
    <edge id="D8" from="94" to="914" priority="3" type="b">
        <lane id="D8_0" index="0" speed="13.89" length="500.00" shape="4000.00,1004.95 3500.00,1004.95"/>
        <lane id="D8_1" index="1" speed="13.89" length="500.00" shape="4000.00,1001.65 3500.00,1001.65"/>
    </edge>
    <edge id="L1" from="1" to="911" priority="3" type="a">
        <lane id="L1_0" index="0" speed="13.89" length="498.50" shape="998.50,1008.25 500.00,1008.25"/>
        <lane id="L1_1" index="1" speed="13.89" length="498.50" shape="998.50,1004.95 500.00,1004.95"/>
        <lane id="L1_2" index="2" speed="13.89" length="498.50" shape="998.50,1001.65 500.00,1001.65"/>
    </edge>
    <edge id="L10" from="6" to="5" priority="3" type="a">
        <lane id="L10_0" index="0" speed="13.89" length="987.15" shape="2011.35,991.75 2998.50,991.75"/>
        <lane id="L10_1" index="1" speed="13.89" length="987.15" shape="2011.35,995.05 2998.50,995.05"/>
        <lane id="L10_2" index="2" speed="13.89" length="987.15" shape="2011.35,998.35 2998.50,998.35"/>
    </edge>
    <edge id="L11" from="6" to="1" priority="3" type="a">
        <lane id="L11_0" index="0" speed="13.89" length="987.15" shape="1988.65,1008.25 1001.50,1008.25"/>
        <lane id="L11_1" index="1" speed="13.89" length="987.15" shape="1988.65,1004.95 1001.50,1004.95"/>
        <lane id="L11_2" index="2" speed="13.89" length="987.15" shape="1988.65,1001.65 1001.50,1001.65"/>
    </edge>
    <edge id="L12" from="1" to="6" priority="3" type="a">
        <lane id="L12_0" index="0" speed="13.89" length="987.15" shape="1001.50,991.75 1988.65,991.75"/>
        <lane id="L12_1" index="1" speed="13.89" length="987.15" shape="1001.50,995.05 1988.65,995.05"/>
        <lane id="L12_2" index="2" speed="13.89" length="987.15" shape="1001.50,998.35 1988.65,998.35"/>
    </edge>
    <edge id="L13" from="3" to="2" priority="3" type="a">
        <lane id="L13_0" index="0" speed="13.89" length="987.15" shape="1988.65,8.25 1001.50,8.25"/>
        <lane id="L13_1" index="1" speed="13.89" length="987.15" shape="1988.65,4.95 1001.50,4.95"/>
        <lane id="L13_2" index="2" speed="13.89" length="987.15" shape="1988.65,1.65 1001.50,1.65"/>
    </edge>
    <edge id="L14" from="2" to="3" priority="3" type="a">
        <lane id="L14_0" index="0" speed="13.89" length="987.15" shape="1001.50,-8.25 1988.65,-8.25"/>
        <lane id="L14_1" index="1" speed="13.89" length="987.15" shape="1001.50,-4.95 1988.65,-4.95"/>
        <lane id="L14_2" index="2" speed="13.89" length="987.15" shape="1001.50,-1.65 1988.65,-1.65"/>
    </edge>
    <edge id="L15" from="6" to="3" priority="2" type="c">
        <lane id="L15_0" index="0" speed="13.89" length="977.30" shape="1991.75,988.65 1991.75,11.35"/>
        <lane id="L15_1" index="1" speed="13.89" length="977.30" shape="1995.05,988.65 1995.05,11.35"/>
        <lane id="L15_2" index="2" speed="13.89" length="977.30" shape="1998.35,988.65 1998.35,11.35"/>
    </edge>
    <edge id="L16" from="3" to="6" priority="2" type="c">
        <lane id="L16_0" index="0" speed="13.89" length="977.30" shape="2008.25,11.35 2008.25,988.65"/>
        <lane id="L16_1" index="1" speed="13.89" length="977.30" shape="2004.95,11.35 2004.95,988.65"/>
        <lane id="L16_2" index="2" speed="13.89" length="977.30" shape="2001.65,11.35 2001.65,988.65"/>
    </edge>
    <edge id="L17" from="4" to="3" priority="3" type="a">
        <lane id="L17_0" index="0" speed="13.89" length="987.15" shape="2998.50,8.25 2011.35,8.25"/>
        <lane id="L17_1" index="1" speed="13.89" length="987.15" shape="2998.50,4.95 2011.35,4.95"/>
        <lane id="L17_2" index="2" speed="13.89" length="987.15" shape="2998.50,1.65 2011.35,1.65"/>
    </edge>
    <edge id="L18" from="3" to="4" priority="3" type="a">
        <lane id="L18_0" index="0" speed="13.89" length="987.15" shape="2011.35,-8.25 2998.50,-8.25"/>
        <lane id="L18_1" index="1" speed="13.89" length="987.15" shape="2011.35,-4.95 2998.50,-4.95"/>
        <lane id="L18_2" index="2" speed="13.89" length="987.15" shape="2011.35,-1.65 2998.50,-1.65"/>
    </edge>
    <edge id="L2" from="911" to="1" priority="3" type="b">
        <lane id="L2_0" index="0" speed="13.89" length="498.50" shape="500.00,995.05 998.50,995.05"/>
        <lane id="L2_1" index="1" speed="13.89" length="498.50" shape="500.00,998.35 998.50,998.35"/>
    </edge>
    <edge id="L3" from="2" to="912" priority="3" type="a">
        <lane id="L3_0" index="0" speed="13.89" length="498.50" shape="998.50,8.25 500.00,8.25"/>
        <lane id="L3_1" index="1" speed="13.89" length="498.50" shape="998.50,4.95 500.00,4.95"/>
        <lane id="L3_2" index="2" speed="13.89" length="498.50" shape="998.50,1.65 500.00,1.65"/>
    </edge>
    <edge id="L4" from="912" to="2" priority="3" type="b">
        <lane id="L4_0" index="0" speed="13.89" length="498.50" shape="500.00,-4.95 998.50,-4.95"/>
        <lane id="L4_1" index="1" speed="13.89" length="498.50" shape="500.00,-1.65 998.50,-1.65"/>
    </edge>
    <edge id="L5" from="4" to="913" priority="3" type="a">
        <lane id="L5_0" index="0" speed="13.89" length="498.50" shape="3001.50,-8.25 3500.00,-8.25"/>
        <lane id="L5_1" index="1" speed="13.89" length="498.50" shape="3001.50,-4.95 3500.00,-4.95"/>
        <lane id="L5_2" index="2" speed="13.89" length="498.50" shape="3001.50,-1.65 3500.00,-1.65"/>
    </edge>
    <edge id="L6" from="913" to="4" priority="3" type="b">
        <lane id="L6_0" index="0" speed="13.89" length="498.50" shape="3500.00,4.95 3001.50,4.95"/>
        <lane id="L6_1" index="1" speed="13.89" length="498.50" shape="3500.00,1.65 3001.50,1.65"/>
    </edge>
    <edge id="L7" from="5" to="914" priority="3" type="a">
        <lane id="L7_0" index="0" speed="13.89" length="498.50" shape="3001.50,991.75 3500.00,991.75"/>
        <lane id="L7_1" index="1" speed="13.89" length="498.50" shape="3001.50,995.05 3500.00,995.05"/>
        <lane id="L7_2" index="2" speed="13.89" length="498.50" shape="3001.50,998.35 3500.00,998.35"/>
    </edge>
    <edge id="L8" from="914" to="5" priority="3" type="b">
        <lane id="L8_0" index="0" speed="13.89" length="498.50" shape="3500.00,1004.95 3001.50,1004.95"/>
        <lane id="L8_1" index="1" speed="13.89" length="498.50" shape="3500.00,1001.65 3001.50,1001.65"/>
    </edge>
    <edge id="L9" from="5" to="6" priority="3" type="a">
        <lane id="L9_0" index="0" speed="13.89" length="987.15" shape="2998.50,1008.25 2011.35,1008.25"/>
        <lane id="L9_1" index="1" speed="13.89" length="987.15" shape="2998.50,1004.95 2011.35,1004.95"/>
        <lane id="L9_2" index="2" speed="13.89" length="987.15" shape="2998.50,1001.65 2011.35,1001.65"/>
    </edge>

    <junction id="1" type="priority" x="1000.00" y="1000.00" incLanes="L11_0 L11_1 L11_2 L2_0 L2_1" intLanes=":1_0_0 :1_0_1 :1_0_2 :1_3_0 :1_3_1 :1_3_2" shape="1001.50,1009.85 1001.50,990.15 998.50,993.45 998.50,1009.85">
        <request index="0" response="000000" foes="000000" cont="0"/>
        <request index="1" response="000000" foes="000000" cont="0"/>
        <request index="2" response="000000" foes="000000" cont="0"/>
        <request index="3" response="000000" foes="000000" cont="0"/>
        <request index="4" response="000000" foes="000000" cont="0"/>
        <request index="5" response="000000" foes="000000" cont="0"/>
    </junction>
    <junction id="2" type="priority" x="1000.00" y="0.00" incLanes="L13_0 L13_1 L13_2 L4_0 L4_1" intLanes=":2_0_0 :2_0_1 :2_0_2 :2_3_0 :2_3_1 :2_3_2" shape="1001.50,9.85 1001.50,-9.85 998.50,-6.55 998.50,9.85">
        <request index="0" response="000000" foes="000000" cont="0"/>
        <request index="1" response="000000" foes="000000" cont="0"/>
        <request index="2" response="000000" foes="000000" cont="0"/>
        <request index="3" response="000000" foes="000000" cont="0"/>
        <request index="4" response="000000" foes="000000" cont="0"/>
        <request index="5" response="000000" foes="000000" cont="0"/>
    </junction>
    <junction id="3" type="priority" x="2000.00" y="0.00" incLanes="L15_0 L15_1 L15_2 L17_0 L17_1 L17_2 L14_0 L14_1 L14_2" intLanes=":3_0_0 :3_1_0 :3_1_1 :3_3_0 :3_3_1 :3_3_2 :3_6_0 :3_6_1 :3_6_2 :3_9_0 :3_9_1 :3_9_2 :3_15_0 :3_16_0 :3_17_0" shape="1990.15,11.35 2009.85,11.35 2011.35,9.85 2011.35,-9.85 1988.65,-9.85 1988.65,9.85">
        <request index="0" response="000000111000000" foes="000000111000000" cont="0"/>
        <request index="1" response="111111111000000" foes="111111111000000" cont="0"/>
        <request index="2" response="111111111000000" foes="111111111000000" cont="0"/>
        <request index="3" response="000000000000000" foes="111000000000000" cont="0"/>
        <request index="4" response="000000000000000" foes="111000000000000" cont="0"/>
        <request index="5" response="000000000000000" foes="111000000000000" cont="0"/>
        <request index="6" response="000000000000000" foes="111000000000111" cont="0"/>
        <request index="7" response="000000000000000" foes="111000000000111" cont="0"/>
        <request index="8" response="000000000000000" foes="111000000000111" cont="0"/>
        <request index="9" response="000000000000000" foes="000000000000110" cont="0"/>
        <request index="10" response="000000000000000" foes="000000000000110" cont="0"/>
        <request index="11" response="000000000000000" foes="000000000000110" cont="0"/>
        <request index="12" response="000000111111000" foes="000000111111110" cont="1"/>
        <request index="13" response="000000111111000" foes="000000111111110" cont="1"/>
        <request index="14" response="000000111111000" foes="000000111111110" cont="1"/>
    </junction>
    <junction id="4" type="priority" x="3000.00" y="0.00" incLanes="L6_0 L6_1 L18_0 L18_1 L18_2" intLanes=":4_0_0 :4_0_1 :4_0_2 :4_3_0 :4_3_1 :4_3_2" shape="3001.50,6.55 3001.50,-9.85 2998.50,-9.85 2998.50,9.85">
        <request index="0" response="000000" foes="000000" cont="0"/>
        <request index="1" response="000000" foes="000000" cont="0"/>
        <request index="2" response="000000" foes="000000" cont="0"/>
        <request index="3" response="000000" foes="000000" cont="0"/>
        <request index="4" response="000000" foes="000000" cont="0"/>
        <request index="5" response="000000" foes="000000" cont="0"/>
    </junction>
    <junction id="5" type="priority" x="3000.00" y="1000.00" incLanes="L8_0 L8_1 L10_0 L10_1 L10_2" intLanes=":5_0_0 :5_0_1 :5_0_2 :5_3_0 :5_3_1 :5_3_2" shape="3001.50,1006.55 3001.50,990.15 2998.50,990.15 2998.50,1009.85">
        <request index="0" response="000000" foes="000000" cont="0"/>
        <request index="1" response="000000" foes="000000" cont="0"/>
        <request index="2" response="000000" foes="000000" cont="0"/>
        <request index="3" response="000000" foes="000000" cont="0"/>
        <request index="4" response="000000" foes="000000" cont="0"/>
        <request index="5" response="000000" foes="000000" cont="0"/>
    </junction>
    <junction id="6" type="priority" x="2000.00" y="1000.00" incLanes="L9_0 L9_1 L9_2 L16_0 L16_1 L16_2 L12_0 L12_1 L12_2" intLanes=":6_0_0 :6_0_1 :6_0_2 :6_14_0 :6_15_0 :6_5_0 :6_5_1 :6_5_2 :6_8_0 :6_9_0 :6_9_1 :6_11_0 :6_11_1 :6_11_2" shape="2011.35,1009.85 2011.35,990.15 2009.85,988.65 1990.15,988.65 1988.65,990.15 1988.65,1009.85">
        <request index="0" response="00000000000000" foes="00000100000000" cont="0"/>
        <request index="1" response="00000000000000" foes="00000100000000" cont="0"/>
        <request index="2" response="00000000000000" foes="00000100000000" cont="0"/>
        <request index="3" response="11111000000000" foes="11111100000000" cont="1"/>
        <request index="4" response="11111000000000" foes="11111100000000" cont="1"/>
        <request index="5" response="11100000000000" foes="11100000000000" cont="0"/>
        <request index="6" response="11100000000000" foes="11100000000000" cont="0"/>
        <request index="7" response="11100000000000" foes="11100000000000" cont="0"/>
        <request index="8" response="11100000011111" foes="11100000011111" cont="0"/>
        <request index="9" response="00000000000000" foes="00000000011000" cont="0"/>
        <request index="10" response="00000000000000" foes="00000000011000" cont="0"/>
        <request index="11" response="00000000000000" foes="00000111111000" cont="0"/>
        <request index="12" response="00000000000000" foes="00000111111000" cont="0"/>
        <request index="13" response="00000000000000" foes="00000111111000" cont="0"/>
    </junction>
    <junction id="91" type="dead_end" x="0.00" y="1000.00" incLanes="D1_0 D1_1 D1_2" intLanes="" shape="-0.00,999.95 -0.00,993.45 0.00,1009.85 0.00,1000.05"/>
    <junction id="911" type="priority" x="500.00" y="1000.00" incLanes="L1_0 L1_1 L1_2 D2_0 D2_1" intLanes=":911_0_0 :911_0_1 :911_0_2 :911_3_0 :911_3_1" shape="500.00,1009.85 500.00,993.45 500.00,1009.85">
        <request index="0" response="00000" foes="00000" cont="0"/>
        <request index="1" response="00000" foes="00000" cont="0"/>
        <request index="2" response="00000" foes="00000" cont="0"/>
        <request index="3" response="00000" foes="00000" cont="0"/>
        <request index="4" response="00000" foes="00000" cont="0"/>
    </junction>
    <junction id="912" type="priority" x="500.00" y="0.00" incLanes="L3_0 L3_1 L3_2 D4_0 D4_1" intLanes=":912_0_0 :912_0_1 :912_0_2 :912_3_0 :912_3_1" shape="500.00,9.85 500.00,-6.55 500.00,9.85">
        <request index="0" response="00000" foes="00000" cont="0"/>
        <request index="1" response="00000" foes="00000" cont="0"/>
        <request index="2" response="00000" foes="00000" cont="0"/>
        <request index="3" response="00000" foes="00000" cont="0"/>
        <request index="4" response="00000" foes="00000" cont="0"/>
    </junction>
    <junction id="913" type="priority" x="3500.00" y="0.00" incLanes="D6_0 D6_1 L5_0 L5_1 L5_2" intLanes=":913_0_0 :913_0_1 :913_2_0 :913_2_1 :913_2_2" shape="3500.00,6.55 3500.00,-9.85 3500.00,6.55">
        <request index="0" response="00000" foes="00000" cont="0"/>
        <request index="1" response="00000" foes="00000" cont="0"/>
        <request index="2" response="00000" foes="00000" cont="0"/>
        <request index="3" response="00000" foes="00000" cont="0"/>
        <request index="4" response="00000" foes="00000" cont="0"/>
    </junction>
    <junction id="914" type="priority" x="3500.00" y="1000.00" incLanes="D8_0 D8_1 L7_0 L7_1 L7_2" intLanes=":914_0_0 :914_0_1 :914_2_0 :914_2_1 :914_2_2" shape="3500.00,1006.55 3500.00,990.15 3500.00,1006.55">
        <request index="0" response="00000" foes="00000" cont="0"/>
        <request index="1" response="00000" foes="00000" cont="0"/>
        <request index="2" response="00000" foes="00000" cont="0"/>
        <request index="3" response="00000" foes="00000" cont="0"/>
        <request index="4" response="00000" foes="00000" cont="0"/>
    </junction>
    <junction id="92" type="dead_end" x="0.00" y="0.00" incLanes="D3_0 D3_1 D3_2" intLanes="" shape="-0.00,-0.05 -0.00,-6.55 0.00,9.85 0.00,0.05"/>