<?xml version="1.0" encoding="UTF-8"?>
<routes>
  <vType accel="3.0" decel="6.0" id="CarA" length="5.0" minGap="2.5" maxSpeed="50.0" sigma="0.5" />
  <vType accel="2.0" decel="6.0" id="CarB" length="7.5" minGap="2.5" maxSpeed="50.0" sigma="0.5" />
  <vType accel="1.0" decel="5.0" id="CarC" length="5.0" minGap="2.5" maxSpeed="40.0" sigma="0.5" />
  <vType accel="1.0" decel="5.0" id="CarD" length="7.5" minGap="2.5" maxSpeed="30.0" sigma="0.5" />

  <route id="route01" edges="D2 L2 L12 L10 L7 D7"/>
  <route id="route02" edges="D2 L2 L12 L15 L18 L5 D5"/>
  <route id="route03" edges="D2 L2 L12 L15 L13 L3 D3"/>
  <route id="route04" edges="D4 L4 L14 L18 L5 D5"/>
  <route id="route05" edges="D4 L4 L14 L16 L10 L7 D7"/>
  <route id="route06" edges="D4 L4 L14 L16 L11 L1 D1"/>
  <route id="route07" edges="D6 L6 L17 L13 L3 D3"/>
  <route id="route08" edges="D6 L6 L17 L16 L11 L1 D1"/>
  <route id="route09" edges="D6 L6 L17 L16 L10 L7 D7"/>
  <route id="route10" edges="D8 L8 L9 L11 L1 D1"/>
  <route id="route11" edges="D8 L8 L9 L15 L13 L3 D3"/>
  <route id="route12" edges="D8 L8 L9 L15 L18 L5 D5"/>

  <vehicle depart="54000" id="veh0" route="route01" type="CarA" color="1,0,0" /> 
  <vehicle depart="54000" id="veh1" route="route02" type="CarA" />
  <vehicle depart="54000" id="veh2" route="route03" type="CarA" />
  <vehicle depart="54000" id="veh3" route="route04" type="CarA" />
  <vehicle depart="54000" id="veh4" route="route05" type="CarA" />
  <vehicle depart="54000" id="veh5" route="route06" type="CarA" />
  <vehicle depart="54000" id="veh6" route="route07" type="CarA" />
  <vehicle depart="54000" id="veh7" route="route08" type="CarA" />
  <vehicle depart="54000" id="veh8" route="route09" type="CarA" />
  <vehicle depart="54000" id="veh9" route="route10" type="CarA" />
  <vehicle depart="54000" id="veh10" route="route11" type="CarA" />
  <vehicle depart="54000" id="veh11" route="route12" type="CarA" />
  <vehicle depart="54000" id="veh12" route="route01" type="CarB" color="1,0,0" /> 
  <vehicle depart="54000" id="veh13" route="route02" type="CarB" />
  <vehicle depart="54000" id="veh14" route="route03" type="CarB" />
  <vehicle depart="54000" id="veh15" route="route04" type="CarB" />
  <vehicle depart="54000" id="veh16" route="route05" type="CarB" />
  <vehicle depart="54000" id="veh17" route="route06" type="CarB" />
  <vehicle depart="54000" id="veh18" route="route07" type="CarB" />
  <vehicle depart="54000" id="veh19" route="route08" type="CarB" />
  <vehicle depart="54000" id="veh20" route="route09" type="CarB" />
  <vehicle depart="54000" id="veh21" route="route10" type="CarB" />
  <vehicle depart="54000" id="veh22" route="route11" type="CarB" />
  <vehicle depart="54000" id="veh23" route="route12" type="CarB" /> 
  <vehicle depart="54000" id="veh24" route="route01" type="CarC" color="1,0,0" /> 
  <vehicle depart="54000" id="veh25" route="route02" type="CarC" />
  <vehicle depart="54000" id="veh26" route="route03" type="CarC" />
  <vehicle depart="54000" id="veh27" route="route04" type="CarC" />
  <vehicle depart="54000" id="veh28" route="route05" type="CarC" />
  <vehicle depart="54000" id="veh29" route="route06" type="CarC" />
  <vehicle depart="54000" id="veh30" route="route07" type="CarC" />
  <vehicle depart="54000" id="veh31" route="route08" type="CarC" />
  <vehicle depart="54000" id="veh32" route="route09" type="CarC" />
  <vehicle depart="54000" id="veh33" route="route10" type="CarC" />
  <vehicle depart="54000" id="veh34" route="route11" type="CarC" />
  <vehicle depart="54000" id="veh35" route="route12" type="CarC" />
  <vehicle depart="54000" id="veh36" route="route01" type="CarD" color="1,0,0" /> 
  <vehicle depart="54000" id="veh37" route="route02" type="CarD" />
  <vehicle depart="54000" id="veh38" route="route03" type="CarD" />
  <vehicle depart="54000" id="veh39" route="route04" type="CarD" />
  <vehicle depart="54000" id="veh40" route="route05" type="CarD" />
  <vehicle depart="54000" id="veh41" route="route06" type="CarD" />
  <vehicle depart="54000" id="veh42" route="route07" type="CarD" />
  <vehicle depart="54000" id="veh43" route="route08" type="CarD" />
  <vehicle depart="54000" id="veh44" route="route09" type="CarD" />
  <vehicle depart="54000" id="veh45" route="route10" type="CarD" />
  <vehicle depart="54000" id="veh46" route="route11" type="CarD" />
  <vehicle depart="54000" id="veh47" route="route12" type="CarD" /> 
  <vehicle depart="54030" id="veh48" route="route01" type="CarA" color="1,0,0" /> 
  <vehicle depart="54030" id="veh49" route="route02" type="CarA" />
  <vehicle depart="54030" id="veh50" route="route03" type="CarA" />
  <vehicle depart="54030" id="veh51" route="route04" type="CarA" />
  <vehicle depart="54030" id="veh52" route="route05" type="CarA" />
  <vehicle depart="54030" id="veh53" route="route06" type="CarA" />
  <vehicle depart="54030" id="veh54" route="route07" type="CarA" />
  <vehicle depart="54030" id="veh55" route="route08" type="CarA" />
  <vehicle depart="54030" id="veh56" route="route09" type="CarA" />
  <vehicle depart="54030" id="veh57" route="route10" type="CarA" />
  <vehicle depart="54030" id="veh58" route="route11" type="CarA" />
  <vehicle depart="54030" id="veh59" route="route12" type="CarA" />
  <vehicle depart="54030" id="veh60" route="route01" type="CarB" color="1,0,0" /> 
  <vehicle depart="54030" id="veh61" route="route02" type="CarB" />
  <vehicle depart="54030" id="veh62" route="route03" type="CarB" />
  <vehicle depart="54030" id="veh63" route="route04" type="CarB" />
  <vehicle depart="54030" id="veh64" route="route05" type="CarB" />
  <vehicle depart="54030" id="veh65" route="route06" type="CarB" />
  <vehicle depart="54030" id="veh66" route="route07" type="CarB" />
  <vehicle depart="54030" id="veh67" route="route08" type="CarB" />
  <vehicle depart="54030" id="veh68" route="route09" type="CarB" />
  <vehicle depart="54030" id="veh69" route="route10" type="CarB" />
  <vehicle depart="54030" id="veh70" route="route11" type="CarB" />
  <vehicle depart="54030" id="veh71" route="route12" type="CarB" /> 
  <vehicle depart="54030" id="veh72" route="route01" type="CarC" color="1,0,0" /> 
  <vehicle depart="54030" id="veh73" route="route02" type="CarC" />
  <vehicle depart="54030" id="veh74" route="route03" type="CarC" />
  <vehicle depart="54030" id="veh75" route="route04" type="CarC" />
  <vehicle depart="54030" id="veh76" route="route05" type="CarC" />
  <vehicle depart="54030" id="veh77" route="route06" type="CarC" />
  <vehicle depart="54030" id="veh78" route="route07" type="CarC" />
  <vehicle depart="54030" id="veh79" route="route08" type="CarC" />
  <vehicle depart="54030" id="veh80" route="route09" type="CarC" />
  <vehicle depart="54030" id="veh81" route="route10" type="CarC" />
  <vehicle depart="54030" id="veh82" route="route11" type="CarC" />
  <vehicle depart="54030" id="veh83" route="route12" type="CarC" />
  <vehicle depart="54030" id="veh84" route="route01" type="CarD" color="1,0,0" /> 
  <vehicle depart="54030" id="veh85" route="route02" type="CarD" />
  <vehicle depart="54030" id="veh86" route="route03" type="CarD" />
  <vehicle depart="54030" id="veh87" route="route04" type="CarD" />
  <vehicle depart="54030" id="veh88" route="route05" type="CarD" />
  <vehicle depart="54030" id="veh89" route="route06" type="CarD" />
  <vehicle depart="54030" id="veh90" route="route07" type="CarD" />
  <vehicle depart="54030" id="veh91" route="route08" type="CarD" />
  <vehicle depart="54030" id="veh92" route="route09" type="CarD" />
  <vehicle depart="54030" id="veh93" route="route10" type="CarD" />
  <vehicle depart="54030" id="veh94" route="route11" type="CarD" />
  <vehicle depart="54030" id="veh95" route="route12" type="CarD" /> 
  <vehicle depart="54060" id="veh96" route="route01" type="CarA" color="1,0,0" /> 
  <vehicle depart="54060" id="veh97" route="route02" type="CarA" />
  <vehicle depart="54060" id="veh98" route="route03" type="CarA" />
  <vehicle depart="54060" id="veh99" route="route04" type="CarA" />
  <vehicle depart="54060" id="veh100" route="route05" type="CarA" />
  <vehicle depart="54060" id="veh101" route="route06" type="CarA" />
  <vehicle depart="54060" id="veh102" route="route07" type="CarA" />
  <vehicle depart="54060" id="veh103" route="route08" type="CarA" />
  <vehicle depart="54060" id="veh104" route="route09" type="CarA" />
  <vehicle depart="54060" id="veh105" route="route10" type="CarA" />
  <vehicle depart="54060" id="veh106" route="route11" type="CarA" />
  <vehicle depart="54060" id="veh107" route="route12" type="CarA" />
  <vehicle depart="54060" id="veh108" route="route01" type="CarB" color="1,0,0" /> 
  <vehicle depart="54060" id="veh109" route="route02" type="CarB" />
  <vehicle depart="54060" id="veh110" route="route03" type="CarB" />
  <vehicle depart="54060" id="veh111" route="route04" type="CarB" />
  <vehicle depart="54060" id="veh112" route="route05" type="CarB" />
  <vehicle depart="54060" id="veh113" route="route06" type="CarB" />
  <vehicle depart="54060" id="veh114" route="route07" type="CarB" />
  <vehicle depart="54060" id="veh115" route="route08" type="CarB" />
  <vehicle depart="54060" id="veh116" route="route09" type="CarB" />
  <vehicle depart="54060" id="veh117" route="route10" type="CarB" />
  <vehicle depart="54060" id="veh118" route="route11" type="CarB" />
  <vehicle depart="54060" id="veh119" route="route12" type="CarB" /> 
  <vehicle depart="54060" id="veh120" route="route01" type="CarC" color="1,0,0" /> 
  <vehicle depart="54060" id="veh121" route="route02" type="CarC" />
  <vehicle depart="54060" id="veh122" route="route03" type="CarC" />
  <vehicle depart="54060" id="veh123" route="route04" type="CarC" />
  <vehicle depart="54060" id="veh124" route="route05" type="CarC" />
  <vehicle depart="54060" id="veh125" route="route06" type="CarC" />
  <vehicle depart="54060" id="veh126" route="route07" type="CarC" />
  <vehicle depart="54060" id="veh127" route="route08" type="CarC" />
  <vehicle depart="54060" id="veh128" route="route09" type="CarC" />
  <vehicle depart="54060" id="veh129" route="route10" type="CarC" />
  <vehicle depart="54060" id="veh130" route="route11" type="CarC" />
  <vehicle depart="54060" id="veh131" route="route12" type="CarC" />
  <vehicle depart="54060" id="veh132" route="route01" type="CarD" color="1,0,0" /> 
  <vehicle depart="54060" id="veh133" route="route02" type="CarD" />
  <vehicle depart="54060" id="veh134" route="route03" type="CarD" />
  <vehicle depart="54060" id="veh135" route="route04" type="CarD" />
  <vehicle depart="54060" id="veh136" route="route05" type="CarD" />
  <vehicle depart="54060" id="veh137" route="route06" type="CarD" />
  <vehicle depart="54060" id="veh138" route="route07" type="CarD" />
  <vehicle depart="54060" id="veh139" route="route08" type="CarD" />
  <vehicle depart="54060" id="veh140" route="route09" type="CarD" />
  <vehicle depart="54060" id="veh141" route="route10" type="CarD" />
  <vehicle depart="54060" id="veh142" route="route11" type="CarD" />
  <vehicle depart="54060" id="veh143" route="route12" type="CarD" /> 
  <vehicle depart="54090" id="veh144" route="route01" type="CarA" color="1,0,0" /> 
  <vehicle depart="54090" id="veh145" route="route02" type="CarA" />
  <vehicle depart="54090" id="veh146" route="route03" type="CarA" />
  <vehicle depart="54090" id="veh147" route="route04" type="CarA" />
  <vehicle depart="54090" id="veh148" route="route05" type="CarA" />
  <vehicle depart="54090" id="veh149" route="route06" type="CarA" />
  <vehicle depart="54090" id="veh150" route="route07" type="CarA" />
  <vehicle depart="54090" id="veh151" route="route08" type="CarA" />
  <vehicle depart="54090" id="veh152" route="route09" type="CarA" />
  <vehicle depart="54090" id="veh153" route="route10" type="CarA" />
  <vehicle depart="54090" id="veh154" route="route11" type="CarA" />
  <vehicle depart="54090" id="veh155" route="route12" type="CarA" />
  <vehicle depart="54090" id="veh156" route="route01" type="CarB" color="1,0,0" /> 
  <vehicle depart="54090" id="veh157" route="route02" type="CarB" />
  <vehicle depart="54090" id="veh158" route="route03" type="CarB" />
  <vehicle depart="54090" id="veh159" route="route04" type="CarB" />
  <vehicle depart="54090" id="veh160" route="route05" type="CarB" />
  <vehicle depart="54090" id="veh161" route="route06" type="CarB" />
  <vehicle depart="54090" id="veh162" route="route07" type="CarB" />
  <vehicle depart="54090" id="veh163" route="route08" type="CarB" />
  <vehicle depart="54090" id="veh164" route="route09" type="CarB" />
  <vehicle depart="54090" id="veh165" route="route10" type="CarB" />
  <vehicle depart="54090" id="veh166" route="route11" type="CarB" />
  <vehicle depart="54090" id="veh167" route="route12" type="CarB" /> 
  <vehicle depart="54090" id="veh168" route="route01" type="CarC" color="1,0,0" /> 
  <vehicle depart="54090" id="veh169" route="route02" type="CarC" />
  <vehicle depart="54090" id="veh170" route="route03" type="CarC" />
  <vehicle depart="54090" id="veh171" route="route04" type="CarC" />
  <vehicle depart="54090" id="veh172" route="route05" type="CarC" />
  <vehicle depart="54090" id="veh173" route="route06" type="CarC" />
  <vehicle depart="54090" id="veh174" route="route07" type="CarC" />
  <vehicle depart="54090" id="veh175" route="route08" type="CarC" />
  <vehicle depart="54090" id="veh176" route="route09" type="CarC" />
  <vehicle depart="54090" id="veh177" route="route10" type="CarC" />
  <vehicle depart="54090" id="veh178" route="route11" type="CarC" />
  <vehicle depart="54090" id="veh179" route="route12" type="CarC" />
  <vehicle depart="54090" id="veh180" route="route01" type="CarD" color="1,0,0" /> 
  <vehicle depart="54090" id="veh181" route="route02" type="CarD" />
  <vehicle depart="54090" id="veh182" route="route03" type="CarD" />
  <vehicle depart="54090" id="veh183" route="route04" type="CarD" />
  <vehicle depart="54090" id="veh184" route="route05" type="CarD" />
  <vehicle depart="54090" id="veh185" route="route06" type="CarD" />
  <vehicle depart="54090" id="veh186" route="route07" type="CarD" />
  <vehicle depart="54090" id="veh187" route="route08" type="CarD" />
  <vehicle depart="54090" id="veh188" route="route09" type="CarD" />
  <vehicle depart="54090" id="veh189" route="route10" type="CarD" />
  <vehicle depart="54090" id="veh190" route="route11" type="CarD" />
  <vehicle depart="54090" id="veh191" route="route12" type="CarD" /> 
  <vehicle depart="54120" id="veh192" route="route01" type="CarA" color="1,0,0" /> 
  <vehicle depart="54120" id="veh193" route="route02" type="CarA" />
  <vehicle depart="54120" id="veh194" route="route03" type="CarA" />
  <vehicle depart="54120" id="veh195" route="route04" type="CarA" />
  <vehicle depart="54120" id="veh196" route="route05" type="CarA" />
  <vehicle depart="54120" id="veh197" route="route06" type="CarA" />
  <vehicle depart="54120" id="veh198" route="route07" type="CarA" />
  <vehicle depart="54120" id="veh199" route="route08" type="CarA" />
  <vehicle depart="54120" id="veh200" route="route09" type="CarA" />
  <vehicle depart="54120" id="veh201" route="route10" type="CarA" />
  <vehicle depart="54120" id="veh202" route="route11" type="CarA" />
  <vehicle depart="54120" id="veh203" route="route12" type="CarA" />
  <vehicle depart="54120" id="veh204" route="route01" type="CarB" color="1,0,0" /> 
  <vehicle depart="54120" id="veh205" route="route02" type="CarB" />
  <vehicle depart="54120" id="veh206" route="route03" type="CarB" />
  <vehicle depart="54120" id="veh207" route="route04" type="CarB" />
  <vehicle depart="54120" id="veh208" route="route05" type="CarB" />
  <vehicle depart="54120" id="veh209" route="route06" type="CarB" />
  <vehicle depart="54120" id="veh210" route="route07" type="CarB" />
  <vehicle depart="54120" id="veh211" route="route08" type="CarB" />
  <vehicle depart="54120" id="veh212" route="route09" type="CarB" />
  <vehicle depart="54120" id="veh213" route="route10" type="CarB" />
  <vehicle depart="54120" id="veh214" route="route11" type="CarB" />
  <vehicle depart="54120" id="veh215" route="route12" type="CarB" /> 
  <vehicle depart="54120" id="veh216" route="route01" type="CarC" color="1,0,0" /> 
  <vehicle depart="54120" id="veh217" route="route02" type="CarC" />
  <vehicle depart="54120" id="veh218" route="route03" type="CarC" />
  <vehicle depart="54120" id="veh219" route="route04" type="CarC" />
  <vehicle depart="54120" id="veh220" route="route05" type="CarC" />
  <vehicle depart="54120" id="veh221" route="route06" type="CarC" />
  <vehicle depart="54120" id="veh222" route="route07" type="CarC" />
  <vehicle depart="54120" id="veh223" route="route08" type="CarC" />
  <vehicle depart="54120" id="veh224" route="route09" type="CarC" />
  <vehicle depart="54120" id="veh225" route="route10" type="CarC" />
  <vehicle depart="54120" id="veh226" route="route11" type="CarC" />
  <vehicle depart="54120" id="veh227" route="route12" type="CarC" />
  <vehicle depart="54120" id="veh228" route="route01" type="CarD" color="1,0,0" /> 
  <vehicle depart="54120" id="veh229" route="route02" type="CarD" />
  <vehicle depart="54120" id="veh230" route="route03" type="CarD" />
  <vehicle depart="54120" id="veh231" route="route04" type="CarD" />
  <vehicle depart="54120" id="veh232" route="route05" type="CarD" />
  <vehicle depart="54120" id="veh233" route="route06" type="CarD" />
  <vehicle depart="54120" id="veh234" route="route07" type="CarD" />
  <vehicle depart="54120" id="veh235" route="route08" type="CarD" />
  <vehicle depart="54120" id="veh236" route="route09" type="CarD" />
  <vehicle depart="54120" id="veh237" route="route10" type="CarD" />
  <vehicle depart="54120" id="veh238" route="route11" type="CarD" />
  <vehicle depart="54120" id="veh239" route="route12" type="CarD" /> 
  <vehicle depart="54150" id="veh240" route="route01" type="CarA" color="1,0,0" /> 
  <vehicle depart="54150" id="veh241" route="route02" type="CarA" />
  <vehicle depart="54150" id="veh242" route="route03" type="CarA" />
  <vehicle depart="54150" id="veh243" route="route04" type="CarA" />
  <vehicle depart="54150" id="veh244" route="route05" type="CarA" />
  <vehicle depart="54150" id="veh245" route="route06" type="CarA" />
  <vehicle depart="54150" id="veh246" route="route07" type="CarA" />
  <vehicle depart="54150" id="veh247" route="route08" type="CarA" />
  <vehicle depart="54150" id="veh248" route="route09" type="CarA" />
  <vehicle depart="54150" id="veh249" route="route10" type="CarA" />
  <vehicle depart="54150" id="veh250" route="route11" type="CarA" />
  <vehicle depart="54150" id="veh251" route="route12" type="CarA" />
  <vehicle depart="54150" id="veh252" route="route01" type="CarB" color="1,0,0" /> 
  <vehicle depart="54150" id="veh253" route="route02" type="CarB" />
  <vehicle depart="54150" id="veh254" route="route03" type="CarB" />
  <vehicle depart="54150" id="veh255" route="route04" type="CarB" />
  <vehicle depart="54150" id="veh256" route="route05" type="CarB" />
  <vehicle depart="54150" id="veh257" route="route06" type="CarB" />
  <vehicle depart="54150" id="veh258" route="route07" type="CarB" />
  <vehicle depart="54150" id="veh259" route="route08" type="CarB" />
  <vehicle depart="54150" id="veh260" route="route09" type="CarB" />
  <vehicle depart="54150" id="veh261" route="route10" type="CarB" />
  <vehicle depart="54150" id="veh262" route="route11" type="CarB" />
  <vehicle depart="54150" id="veh263" route="route12" type="CarB" /> 
  <vehicle depart="54150" id="veh264" route="route01" type="CarC" color="1,0,0" /> 
  <vehicle depart="54150" id="veh265" route="route02" type="CarC" />
  <vehicle depart="54150" id="veh266" route="route03" type="CarC" />
  <vehicle depart="54150" id="veh267" route="route04" type="CarC" />
  <vehicle depart="54150" id="veh268" route="route05" type="CarC" />
  <vehicle depart="54150" id="veh269" route="route06" type="CarC" />
  <vehicle depart="54150" id="veh270" route="route07" type="CarC" />
  <vehicle depart="54150" id="veh271" route="route08" type="CarC" />
  <vehicle depart="54150" id="veh272" route="route09" type="CarC" />
  <vehicle depart="54150" id="veh273" route="route10" type="CarC" />
  <vehicle depart="54150" id="veh274" route="route11" type="CarC" />
  <vehicle depart="54150" id="veh275" route="route12" type="CarC" />
  <vehicle depart="54150" id="veh276" route="route01" type="CarD" color="1,0,0" /> 
  <vehicle depart="54150" id="veh277" route="route02" type="CarD" />
  <vehicle depart="54150" id="veh278" route="route03" type="CarD" />
  <vehicle depart="54150" id="veh279" route="route04" type="CarD" />
  <vehicle depart="54150" id="veh280" route="route05" type="CarD" />
  <vehicle depart="54150" id="veh281" route="route06" type="CarD" />
  <vehicle depart="54150" id="veh282" route="route07" type="CarD" />
  <vehicle depart="54150" id="veh283" route="route08" type="CarD" />
  <vehicle depart="54150" id="veh284" route="route09" type="CarD" />
  <vehicle depart="54150" id="veh285" route="route10" type="CarD" />
  <vehicle depart="54150" id="veh286" route="route11" type="CarD" />
  <vehicle depart="54150" id="veh287" route="route12" type="CarD" /> 
  <vehicle depart="54180" id="veh288" route="route01" type="CarA" color="1,0,0" /> 
  <vehicle depart="54180" id="veh289" route="route02" type="CarA" />
  <vehicle depart="54180" id="veh290" route="route03" type="CarA" />
  <vehicle depart="54180" id="veh291" route="route04" type="CarA" />
  <vehicle depart="54180" id="veh292" route="route05" type="CarA" />
  <vehicle depart="54180" id="veh293" route="route06" type="CarA" />
  <vehicle depart="54180" id="veh294" route="route07" type="CarA" />
  <vehicle depart="54180" id="veh295" route="route08" type="CarA" />
  <vehicle depart="54180" id="veh296" route="route09" type="CarA" />
  <vehicle depart="54180" id="veh297" route="route10" type="CarA" />
  <vehicle depart="54180" id="veh298" route="route11" type="CarA" />
  <vehicle depart="54180" id="veh299" route="route12" type="CarA" />
  <vehicle depart="54180" id="veh300" route="route01" type="CarB" color="1,0,0" /> 
  <vehicle depart="54180" id="veh301" route="route02" type="CarB" />
  <vehicle depart="54180" id="veh302" route="route03" type="CarB" />
  <vehicle depart="54180" id="veh303" route="route04" type="CarB" />
  <vehicle depart="54180" id="veh304" route="route05" type="CarB" />
  <vehicle depart="54180" id="veh305" route="route06" type="CarB" />
  <vehicle depart="54180" id="veh306" route="route07" type="CarB" />
  <vehicle depart="54180" id="veh307" route="route08" type="CarB" />
  <vehicle depart="54180" id="veh308" route="route09" type="CarB" />
  <vehicle depart="54180" id="veh309" route="route10" type="CarB" />
  <vehicle depart="54180" id="veh310" route="route11" type="CarB" />
  <vehicle depart="54180" id="veh311" route="route12" type="CarB" /> 
  <vehicle depart="54180" id="veh312" route="route01" type="CarC" color="1,0,0" /> 
  <vehicle depart="54180" id="veh313" route="route02" type="CarC" />
  <vehicle depart="54180" id="veh314" route="route03" type="CarC" />
  <vehicle depart="54180" id="veh315" route="route04" type="CarC" />
  <vehicle depart="54180" id="veh316" route="route05" type="CarC" />
  <vehicle depart="54180" id="veh317" route="route06" type="CarC" />
  <vehicle depart="54180" id="veh318" route="route07" type="CarC" />
  <vehicle depart="54180" id="veh319" route="route08" type="CarC" />
  <vehicle depart="54180" id="veh320" route="route09" type="CarC" />
  <vehicle depart="54180" id="veh321" route="route10" type="CarC" />
  <vehicle depart="54180" id="veh322" route="route11" type="CarC" />
  <vehicle depart="54180" id="veh323" route="route12" type="CarC" color="1,0,0" />
  <vehicle depart="54180" id="veh324" route="route01" type="CarD" /> 
  <vehicle depart="54180" id="veh325" route="route02" type="CarD" />
  <vehicle depart="54180" id="veh326" route="route03" type="CarD" />
  <vehicle depart="54180" id="veh327" route="route04" type="CarD" />
  <vehicle depart="54180" id="veh328" route="route05" type="CarD" />
  <vehicle depart="54180" id="veh329" route="route06" type="CarD" />
  <vehicle depart="54180" id="veh330" route="route07" type="CarD" />
  <vehicle depart="54180" id="veh331" route="route08" type="CarD" />
  <vehicle depart="54180" id="veh332" route="route09" type="CarD" />
  <vehicle depart="54180" id="veh333" route="route10" type="CarD" />
  <vehicle depart="54180" id="veh334" route="route11" type="CarD" />
  <vehicle depart="54180" id="veh335" route="route12" type="CarD" /> 
  <vehicle depart="54210" id="veh336" route="route01" type="CarA" color="1,0,0" /> 
  <vehicle depart="54210" id="veh337" route="route02" type="CarA" />
  <vehicle depart="54210" id="veh338" route="route03" type="CarA" />
  <vehicle depart="54210" id="veh339" route="route04" type="CarA" />
  <vehicle depart="54210" id="veh340" route="route05" type="CarA" />
  <vehicle depart="54210" id="veh341" route="route06" type="CarA" />
  <vehicle depart="54210" id="veh342" route="route07" type="CarA" />
  <vehicle depart="54210" id="veh343" route="route08" type="CarA" />
  <vehicle depart="54210" id="veh344" route="route09" type="CarA" />
  <vehicle depart="54210" id="veh345" route="route10" type="CarA" />
  <vehicle depart="54210" id="veh346" route="route11" type="CarA" />
  <vehicle depart="54210" id="veh347" route="route12" type="CarA" />
  <vehicle depart="54210" id="veh348" route="route01" type="CarB" color="1,0,0" /> 
  <vehicle depart="54210" id="veh349" route="route02" type="CarB" />
  <vehicle depart="54210" id="veh350" route="route03" type="CarB" />
  <vehicle depart="54210" id="veh351" route="route04" type="CarB" />
  <vehicle depart="54210" id="veh352" route="route05" type="CarB" />
  <vehicle depart="54210" id="veh353" route="route06" type="CarB" />
  <vehicle depart="54210" id="veh354" route="route07" type="CarB" />
  <vehicle depart="54210" id="veh355" route="route08" type="CarB" />
  <vehicle depart="54210" id="veh356" route="route09" type="CarB" />
  <vehicle depart="54210" id="veh357" route="route10" type="CarB" />
  <vehicle depart="54210" id="veh358" route="route11" type="CarB" />
  <vehicle depart="54210" id="veh359" route="route12" type="CarB" /> 
  <vehicle depart="54210" id="veh360" route="route01" type="CarC" color="1,0,0" /> 
  <vehicle depart="54210" id="veh361" route="route02" type="CarC" />
  <vehicle depart="54210" id="veh362" route="route03" type="CarC" />
  <vehicle depart="54210" id="veh363" route="route04" type="CarC" />
  <vehicle depart="54210" id="veh364" route="route05" type="CarC" />
  <vehicle depart="54210" id="veh365" route="route06" type="CarC" />
  <vehicle depart="54210" id="veh366" route="route07" type="CarC" />
  <vehicle depart="54210" id="veh367" route="route08" type="CarC" />
  <vehicle depart="54210" id="veh368" route="route09" type="CarC" />
  <vehicle depart="54210" id="veh369" route="route10" type="CarC" />
  <vehicle depart="54210" id="veh370" route="route11" type="CarC" />
  <vehicle depart="54210" id="veh371" route="route12" type="CarC" />
  <vehicle depart="54210" id="veh372" route="route01" type="CarD" color="1,0,0" /> 
  <vehicle depart="54210" id="veh373" route="route02" type="CarD" />
  <vehicle depart="54210" id="veh374" route="route03" type="CarD" />
  <vehicle depart="54210" id="veh375" route="route04" type="CarD" />
  <vehicle depart="54210" id="veh376" route="route05" type="CarD" />
  <vehicle depart="54210" id="veh377" route="route06" type="CarD" />
  <vehicle depart="54210" id="veh378" route="route07" type="CarD" />
  <vehicle depart="54210" id="veh379" route="route08" type="CarD" />
  <vehicle depart="54210" id="veh380" route="route09" type="CarD" />
  <vehicle depart="54210" id="veh381" route="route10" type="CarD" />
  <vehicle depart="54210" id="veh382" route="route11" type="CarD" />
  <vehicle depart="54210" id="veh383" route="route12" type="CarD" /> 
  <vehicle depart="54240" id="veh384" route="route01" type="CarA" color="1,0,0" /> 
  <vehicle depart="54240" id="veh385" route="route02" type="CarA" />
  <vehicle depart="54240" id="veh386" route="route03" type="CarA" />
  <vehicle depart="54240" id="veh387" route="route04" type="CarA" />
  <vehicle depart="54240" id="veh388" route="route05" type="CarA" />
  <vehicle depart="54240" id="veh389" route="route06" type="CarA" />
  <vehicle depart="54240" id="veh390" route="route07" type="CarA" />
  <vehicle depart="54240" id="veh391" route="route08" type="CarA" />
  <vehicle depart="54240" id="veh392" route="route09" type="CarA" />
  <vehicle depart="54240" id="veh393" route="route10" type="CarA" />
  <vehicle depart="54240" id="veh394" route="route11" type="CarA" />
  <vehicle depart="54240" id="veh395" route="route12" type="CarA" />
  <vehicle depart="54240" id="veh396" route="route01" type="CarB" color="1,0,0" /> 
  <vehicle depart="54240" id="veh397" route="route02" type="CarB" />
  <vehicle depart="54240" id="veh398" route="route03" type="CarB" />
  <vehicle depart="54240" id="veh399" route="route04" type="CarB" />
  <vehicle depart="54240" id="veh400" route="route05" type="CarB" />
  <vehicle depart="54240" id="veh401" route="route06" type="CarB" />
  <vehicle depart="54240" id="veh402" route="route07" type="CarB" />
  <vehicle depart="54240" id="veh403" route="route08" type="CarB" />
  <vehicle depart="54240" id="veh404" route="route09" type="CarB" />
  <vehicle depart="54240" id="veh405" route="route10" type="CarB" />
  <vehicle depart="54240" id="veh406" route="route11" type="CarB" />
  <vehicle depart="54240" id="veh407" route="route12" type="CarB" /> 
  <vehicle depart="54240" id="veh408" route="route01" type="CarC" color="1,0,0" /> 
  <vehicle depart="54240" id="veh409" route="route02" type="CarC" />
  <vehicle depart="54240" id="veh410" route="route03" type="CarC" />
  <vehicle depart="54240" id="veh411" route="route04" type="CarC" />