<?xml version="1.0" encoding="UTF-8"?>
<edges xmlns:xsi="http://www.w3.org/2001/XMLSchema-instance" xsi:noNamespaceSchemaLocation="http://sumo.dlr.de/xsd/edges_file.xsd">
    <edge id="D1" from="911" to="91" type="a"/>
    <edge id="D2" from="91" to="911" type="b"/>
    <edge id="D3" from="912" to="92" type="a"/>
    <edge id="D4" from="92" to="912" type="b"/>
    <edge id="D5" from="913" to="93" type="a"/>
    <edge id="D6" from="93" to="913" type="b"/>
    <edge id="D7" from="914" to="94" type="a"/>
    <edge id="D8" from="94" to="914" type="b"/>
    <edge id="L1" from="1" to="911" type="a"/>
    <edge id="L2" from="911" to="1" type="b"/>
    <edge id="L3" from="2" to="912" type="a"/>
    <edge id="L4" from="912" to="2" type="b"/>
    <edge id="L5" from="4" to="913" type="a"/>
    <edge id="L6" from="913" to="4" type="b"/>
    <edge id="L7" from="5" to="914" type="a"/>
    <edge id="L8" from="914" to="5" type="b"/>
    <edge id="L9" from="5" to="6" type="a"/>
    <edge id="L10" from="6" to="5" type="a"/>
    <edge id="L11" from="6" to="1" type="a"/>
    <edge id="L12" from="1" to="6" type="a"/>
    <edge id="L13" from="3" to="2" type="a"/>
    <edge id="L14" from="2" to="3" type="a"/>
    <edge id="L15" from="6" to="3" type="c"/>
    <edge id="L16" from="3" to="6" type="c"/>
    <edge id="L17" from="4" to="3" type="a"/>
    <edge id="L18" from="3" to="4" type="a"/>
</edges>