<?xml version="1.0" encoding="UTF-8"?>

<!-- generated on Wed Apr 21 14:58:38 2021 by Eclipse SUMO netconvert Version 1.7.0
<configuration xmlns:xsi="http://www.w3.org/2001/XMLSchema-instance" xsi:noNamespaceSchemaLocation="http://sumo.dlr.de/xsd/netconvertConfiguration.xsd">

    <input>
        <type-files value="/usr/local/share/sumo/data/typemap/osmNetconvert.typ.xml"/>
        <osm-files value="osm_bbox.osm.xml"/>
    </input>

    <output>
        <output-file value="osm.net.xml"/>
        <output.street-names value="true"/>
        <output.original-names value="true"/>
    </output>

    <projection>
        <proj.utm value="true"/>
    </projection>

    <processing>
        <geometry.remove value="true"/>
        <roundabouts.guess value="true"/>
    </processing>

    <tls_building>
        <tls.discard-simple value="true"/>
        <tls.join value="true"/>
        <tls.guess-signals value="true"/>
        <tls.default-type value="actuated"/>
    </tls_building>

    <ramp_guessing>
        <ramps.guess value="true"/>
    </ramp_guessing>

    <junctions>
        <junctions.join value="true"/>
        <junctions.corner-detail value="5"/>
    </junctions>

    <report>
        <verbose value="true"/>
        <aggregate-warnings value="5"/>
    </report>

</configuration>
-->

<net version="1.6" junctionCornerDetail="5" limitTurnSpeed="5.50" xmlns:xsi="http://www.w3.org/2001/XMLSchema-instance" xsi:noNamespaceSchemaLocation="http://sumo.dlr.de/xsd/net_file.xsd">

    <location netOffset="-390479.24,-5819073.16" convBoundary="0.00,0.00,1164.39,986.80" origBoundary="13.386135,52.510812,13.403342,52.519664" projParameter="+proj=utm +zone=33 +ellps=WGS84 +datum=WGS84 +units=m +no_defs"/>

    <type id="highway.bridleway" priority="1" numLanes="1" speed="2.78" allow="pedestrian" oneway="1" width="2.00"/>
    <type id="highway.bus_guideway" priority="1" numLanes="1" speed="27.78" allow="bus" oneway="1"/>
    <type id="highway.cycleway" priority="1" numLanes="1" speed="8.33" allow="bicycle" oneway="0" width="1.00"/>
    <type id="highway.footway" priority="1" numLanes="1" speed="2.78" allow="pedestrian" oneway="1" width="2.00"/>
    <type id="highway.ford" priority="1" numLanes="1" speed="2.78" allow="army" oneway="0"/>
    <type id="highway.living_street" priority="2" numLanes="1" speed="2.78" disallow="tram rail_urban rail rail_electric rail_fast ship" oneway="0"/>
    <type id="highway.motorway" priority="14" numLanes="2" speed="39.44" allow="private emergency authority army vip passenger hov taxi bus coach delivery truck trailer motorcycle evehicle custom1 custom2" oneway="1"/>
    <type id="highway.motorway_link" priority="9" numLanes="1" speed="22.22" allow="private emergency authority army vip passenger hov taxi bus coach delivery truck trailer motorcycle evehicle custom1 custom2" oneway="1"/>
    <type id="highway.path" priority="1" numLanes="1" speed="2.78" allow="pedestrian bicycle" oneway="1" width="2.00"/>
    <type id="highway.pedestrian" priority="1" numLanes="1" speed="2.78" allow="pedestrian" oneway="1" width="2.00"/>
    <type id="highway.primary" priority="12" numLanes="2" speed="27.78" disallow="tram rail_urban rail rail_electric rail_fast ship" oneway="0"/>
    <type id="highway.primary_link" priority="7" numLanes="1" speed="22.22" disallow="tram rail_urban rail rail_electric rail_fast ship" oneway="0"/>
    <type id="highway.raceway" priority="15" numLanes="2" speed="83.33" allow="vip" oneway="0"/>
    <type id="highway.residential" priority="3" numLanes="1" speed="13.89" disallow="tram rail_urban rail rail_electric rail_fast ship" oneway="0"/>
    <type id="highway.secondary" priority="11" numLanes="1" speed="27.78" disallow="tram rail_urban rail rail_electric rail_fast ship" oneway="0"/>
    <type id="highway.secondary_link" priority="6" numLanes="1" speed="22.22" disallow="tram rail_urban rail rail_electric rail_fast ship" oneway="0"/>
    <type id="highway.service" priority="1" numLanes="1" speed="5.56" allow="pedestrian delivery bicycle" oneway="0"/>
    <type id="highway.stairs" priority="1" numLanes="1" speed="1.39" allow="pedestrian" oneway="1" width="2.00"/>
    <type id="highway.step" priority="1" numLanes="1" speed="1.39" allow="pedestrian" oneway="1" width="2.00"/>
    <type id="highway.steps" priority="1" numLanes="1" speed="1.39" allow="pedestrian" oneway="1" width="2.00"/>
    <type id="highway.tertiary" priority="10" numLanes="1" speed="22.22" disallow="tram rail_urban rail rail_electric rail_fast ship" oneway="0"/>
    <type id="highway.tertiary_link" priority="5" numLanes="1" speed="22.22" disallow="tram rail_urban rail rail_electric rail_fast ship" oneway="0"/>
    <type id="highway.track" priority="1" numLanes="1" speed="5.56" allow="pedestrian motorcycle moped bicycle" oneway="0"/>
    <type id="highway.trunk" priority="13" numLanes="2" speed="27.78" disallow="pedestrian bicycle tram rail_urban rail rail_electric rail_fast ship" oneway="0"/>
    <type id="highway.trunk_link" priority="8" numLanes="1" speed="22.22" disallow="pedestrian bicycle tram rail_urban rail rail_electric rail_fast ship" oneway="0"/>
    <type id="highway.unclassified" priority="4" numLanes="1" speed="13.89" disallow="tram rail_urban rail rail_electric rail_fast ship" oneway="0"/>
    <type id="highway.unsurfaced" priority="1" numLanes="1" speed="8.33" disallow="tram rail_urban rail rail_electric rail_fast ship" oneway="0"/>
    <type id="railway.highspeed" priority="21" numLanes="1" speed="69.44" allow="rail_fast" oneway="1"/>
    <type id="railway.light_rail" priority="19" numLanes="1" speed="27.78" allow="rail_urban" oneway="1"/>
    <type id="railway.preserved" priority="16" numLanes="1" speed="27.78" allow="rail" oneway="1"/>
    <type id="railway.rail" priority="20" numLanes="1" speed="44.44" allow="rail" oneway="1"/>
    <type id="railway.subway" priority="18" numLanes="1" speed="27.78" allow="rail_urban" oneway="1"/>
    <type id="railway.tram" priority="17" numLanes="1" speed="13.89" allow="tram" oneway="1"/>

    <edge id=":1204940509_0" function="internal">
        <lane id=":1204940509_0_0" index="0" disallow="tram rail_urban rail rail_electric rail_fast ship" speed="8.33" length="9.40" shape="461.08,162.43 451.70,161.75"/>
    </edge>
    <edge id=":1204940509_1" function="internal">
        <lane id=":1204940509_1_0" index="0" allow="pedestrian delivery bicycle" speed="5.56" length="5.19" shape="461.08,162.43 458.28,161.82 456.39,160.46"/>
    </edge>
    <edge id=":1204940509_2" function="internal">
        <lane id=":1204940509_2_0" index="0" disallow="tram rail_urban rail rail_electric rail_fast ship" speed="3.65" length="2.34" shape="461.08,162.43 459.94,161.55 459.60,160.72"/>
    </edge>
    <edge id=":1204940509_9" function="internal">
        <lane id=":1204940509_9_0" index="0" allow="pedestrian delivery bicycle" speed="5.56" length="5.19" shape="456.39,160.46 455.41,158.35 455.34,155.48"/>
    </edge>
    <edge id=":1204940509_10" function="internal">
        <lane id=":1204940509_10_0" index="0" disallow="tram rail_urban rail rail_electric rail_fast ship" speed="3.65" length="2.34" shape="459.60,160.72 460.06,159.95 461.31,159.24"/>
    </edge>
    <edge id=":1204940509_3" function="internal">
        <lane id=":1204940509_3_0" index="0" allow="pedestrian delivery bicycle" speed="4.99" length="5.05" shape="458.52,155.86 458.55,157.25 459.03,158.28 459.95,158.94 461.31,159.24"/>
    </edge>
    <edge id=":1204940509_4" function="internal">
        <lane id=":1204940509_4_0" index="0" allow="pedestrian delivery bicycle" speed="5.56" length="10.18" shape="458.52,155.86 457.81,158.60 456.44,160.50 454.40,161.55 451.70,161.75"/>
    </edge>
    <edge id=":1204940509_5" function="internal">
        <lane id=":1204940509_5_0" index="0" allow="pedestrian delivery bicycle" speed="2.78" length="4.67" shape="458.52,155.86 457.58,156.96 456.74,157.26 456.00,156.77 455.34,155.48"/>
    </edge>
    <edge id=":1204940509_6" function="internal">
        <lane id=":1204940509_6_0" index="0" allow="pedestrian delivery bicycle" speed="5.19" length="5.19" shape="451.93,158.56 453.28,158.45 454.29,157.90 454.98,156.91 455.34,155.48"/>
    </edge>
    <edge id=":1204940509_7" function="internal">
        <lane id=":1204940509_7_0" index="0" disallow="tram rail_urban rail rail_electric rail_fast ship" speed="8.33" length="9.41" shape="451.93,158.56 461.31,159.24"/>
    </edge>
    <edge id=":1204940509_8" function="internal">
        <lane id=":1204940509_8_0" index="0" disallow="tram rail_urban rail rail_electric rail_fast ship" speed="3.65" length="2.34" shape="451.93,158.56 453.07,159.45 453.41,160.27"/>
    </edge>
    <edge id=":1204940509_11" function="internal">
        <lane id=":1204940509_11_0" index="0" disallow="tram rail_urban rail rail_electric rail_fast ship" speed="3.65" length="2.34" shape="453.41,160.27 452.96,161.04 451.70,161.75"/>
    </edge>
    <edge id=":1204940520_0" function="internal">
        <lane id=":1204940520_0_0" index="0" disallow="tram rail_urban rail rail_electric rail_fast ship" speed="8.33" length="9.40" shape="501.88,139.55 501.16,148.93"/>
    </edge>
    <edge id=":1204940520_1" function="internal">
        <lane id=":1204940520_1_0" index="0" allow="pedestrian delivery bicycle" speed="5.56" length="5.10" shape="501.88,139.55 501.27,142.28 499.94,144.16"/>
    </edge>
    <edge id=":1204940520_2" function="internal">
        <lane id=":1204940520_2_0" index="0" disallow="tram rail_urban rail rail_electric rail_fast ship" speed="3.65" length="2.34" shape="501.88,139.55 500.99,140.69 500.16,141.03"/>
    </edge>
    <edge id=":1204940520_9" function="internal">
        <lane id=":1204940520_9_0" index="0" allow="pedestrian delivery bicycle" speed="5.56" length="5.10" shape="499.94,144.16 497.88,145.18 495.09,145.34"/>
    </edge>
    <edge id=":1204940520_10" function="internal">
        <lane id=":1204940520_10_0" index="0" disallow="tram rail_urban rail rail_electric rail_fast ship" speed="3.65" length="2.34" shape="500.16,141.03 499.39,140.57 498.69,139.31"/>
    </edge>
    <edge id=":1204940520_3" function="internal">
        <lane id=":1204940520_3_0" index="0" allow="pedestrian delivery bicycle" speed="5.03" length="5.01" shape="495.35,142.15 496.72,142.07 497.73,141.57 498.39,140.65 498.69,139.31"/>
    </edge>
    <edge id=":1204940520_4" function="internal">
        <lane id=":1204940520_4_0" index="0" allow="pedestrian delivery bicycle" speed="5.56" length="10.16" shape="495.35,142.15 498.07,142.77 499.95,144.11 500.98,146.16 501.16,148.93"/>
    </edge>
    <edge id=":1204940520_5" function="internal">
        <lane id=":1204940520_5_0" index="0" allow="pedestrian delivery bicycle" speed="2.78" length="4.67" shape="495.35,142.15 496.48,143.05 496.81,143.88 496.35,144.64 495.09,145.34"/>
    </edge>
    <edge id=":1204940520_6" function="internal">
        <lane id=":1204940520_6_0" index="0" allow="pedestrian delivery bicycle" speed="5.06" length="5.02" shape="497.97,148.68 497.88,147.32 497.37,146.31 496.44,145.65 495.09,145.34"/>
    </edge>
    <edge id=":1204940520_7" function="internal">
        <lane id=":1204940520_7_0" index="0" disallow="tram rail_urban rail rail_electric rail_fast ship" speed="8.33" length="9.40" shape="497.97,148.68 498.69,139.31"/>
    </edge>
    <edge id=":1204940520_8" function="internal">
        <lane id=":1204940520_8_0" index="0" disallow="tram rail_urban rail rail_electric rail_fast ship" speed="3.65" length="2.34" shape="497.97,148.68 498.86,147.55 499.69,147.21"/>
    </edge>
    <edge id=":1204940520_11" function="internal">
        <lane id=":1204940520_11_0" index="0" disallow="tram rail_urban rail rail_electric rail_fast ship" speed="3.65" length="2.34" shape="499.69,147.21 500.46,147.67 501.16,148.93"/>
    </edge>
    <edge id=":1349668349_0" function="internal">
        <lane id=":1349668349_0_0" index="0" disallow="tram rail_urban rail rail_electric rail_fast ship" speed="3.65" length="4.67" shape="1107.81,97.04 1109.25,96.90 1110.06,97.26 1110.26,98.14 1109.84,99.51"/>
    </edge>
    <edge id=":1419121873_0" function="internal">
        <lane id=":1419121873_0_0" index="0" disallow="tram rail_urban rail rail_electric rail_fast ship" speed="3.65" length="4.67" shape="328.62,610.73 327.71,611.85 326.88,612.18 326.12,611.71 325.43,610.45"/>
    </edge>
    <edge id=":1604528506_0" function="internal">
        <lane id=":1604528506_0_0" index="0" disallow="tram rail_urban rail rail_electric rail_fast ship" speed="8.33" length="5.02" shape="874.05,175.10 869.87,177.88"/>
    </edge>
    <edge id=":1604528506_1" function="internal">
        <lane id=":1604528506_1_0" index="0" disallow="tram rail_urban rail rail_electric rail_fast ship" speed="3.65" length="4.67" shape="874.05,175.10 872.61,175.10 871.83,174.65 871.72,173.77 872.28,172.44"/>
    </edge>
    <edge id=":1604528506_2" function="internal">
        <lane id=":1604528506_2_0" index="0" disallow="tram rail_urban rail rail_electric rail_fast ship" speed="8.33" length="5.01" shape="868.10,175.21 872.28,172.44"/>
    </edge>
    <edge id=":1604528506_3" function="internal">
        <lane id=":1604528506_3_0" index="0" disallow="tram rail_urban rail rail_electric rail_fast ship" speed="3.65" length="4.67" shape="868.10,175.21 869.54,175.21 870.32,175.66 870.43,176.55 869.87,177.88"/>
    </edge>
    <edge id=":1759358529_0" function="internal">
        <lane id=":1759358529_0_0" index="0" disallow="tram rail_urban rail rail_electric rail_fast ship" speed="8.33" length="5.19" shape="975.76,103.58 971.52,106.56"/>
    </edge>
    <edge id=":1759358529_1" function="internal">
        <lane id=":1759358529_1_0" index="0" disallow="tram rail_urban rail rail_electric rail_fast ship" speed="3.65" length="2.34" shape="975.76,103.58 974.32,103.60 973.54,103.17"/>
    </edge>
    <edge id=":1759358529_4" function="internal">
        <lane id=":1759358529_4_0" index="0" disallow="tram rail_urban rail rail_electric rail_fast ship" speed="3.65" length="2.34" shape="973.54,103.17 973.41,102.28 973.94,100.94"/>
    </edge>
    <edge id=":1759358529_2" function="internal">
        <lane id=":1759358529_2_0" index="0" disallow="tram rail_urban rail rail_electric rail_fast ship" speed="8.33" length="5.29" shape="969.62,103.98 973.94,100.94"/>
    </edge>
    <edge id=":1759358529_3" function="internal">
        <lane id=":1759358529_3_0" index="0" disallow="tram rail_urban rail rail_electric rail_fast ship" speed="3.65" length="2.34" shape="969.62,103.98 971.06,103.92 971.86,104.32"/>
    </edge>
    <edge id=":1759358529_5" function="internal">
        <lane id=":1759358529_5_0" index="0" disallow="tram rail_urban rail rail_electric rail_fast ship" speed="3.65" length="2.34" shape="971.86,104.32 972.01,105.20 971.52,106.56"/>
    </edge>
    <edge id=":1759358530_0" function="internal">
        <lane id=":1759358530_0_0" index="0" disallow="tram rail_urban rail rail_electric rail_fast ship" speed="8.33" length="5.03" shape="945.22,125.42 941.07,128.25"/>
    </edge>
    <edge id=":1759358530_1" function="internal">
        <lane id=":1759358530_1_0" index="0" disallow="tram rail_urban rail rail_electric rail_fast ship" speed="3.65" length="2.34" shape="945.22,125.42 943.77,125.42 943.00,124.98"/>
    </edge>
    <edge id=":1759358530_4" function="internal">
        <lane id=":1759358530_4_0" index="0" disallow="tram rail_urban rail rail_electric rail_fast ship" speed="3.65" length="2.34" shape="943.00,124.98 942.88,124.10 943.43,122.76"/>
    </edge>
    <edge id=":1759358530_2" function="internal">
        <lane id=":1759358530_2_0" index="0" disallow="tram rail_urban rail rail_electric rail_fast ship" speed="8.33" length="5.08" shape="939.24,125.63 943.43,122.76"/>
    </edge>
    <edge id=":1759358530_3" function="internal">
        <lane id=":1759358530_3_0" index="0" disallow="tram rail_urban rail rail_electric rail_fast ship" speed="3.65" length="2.34" shape="939.24,125.63 940.68,125.60 941.47,126.03"/>
    </edge>
    <edge id=":1759358530_5" function="internal">
        <lane id=":1759358530_5_0" index="0" disallow="tram rail_urban rail rail_electric rail_fast ship" speed="3.65" length="2.34" shape="941.47,126.03 941.59,126.91 941.07,128.25"/>
    </edge>
    <edge id=":1812490332_0" function="internal">
        <lane id=":1812490332_0_0" index="0" allow="pedestrian delivery bicycle" speed="3.65" length="4.67" shape="1163.19,456.70 1164.58,456.33 1165.44,456.56 1165.78,457.38 1165.59,458.81"/>
    </edge>
    <edge id=":1986489455_0" function="internal">
        <lane id=":1986489455_0_0" index="0" disallow="tram rail_urban rail rail_electric rail_fast ship" speed="8.33" length="5.12" shape="1041.36,152.07 1037.21,155.06"/>
    </edge>
    <edge id=":1986489455_1" function="internal">
        <lane id=":1986489455_1_0" index="0" disallow="tram rail_urban rail rail_electric rail_fast ship" speed="3.65" length="4.67" shape="1041.36,152.07 1039.92,152.12 1039.13,151.71 1038.99,150.83 1039.49,149.48"/>
    </edge>
    <edge id=":1986489455_2" function="internal">
        <lane id=":1986489455_2_0" index="0" disallow="tram rail_urban rail rail_electric rail_fast ship" speed="8.33" length="5.12" shape="1035.34,152.47 1039.49,149.48"/>
    </edge>
    <edge id=":1986489455_3" function="internal">
        <lane id=":1986489455_3_0" index="0" disallow="tram rail_urban rail rail_electric rail_fast ship" speed="3.65" length="4.67" shape="1035.34,152.47 1036.78,152.41 1037.57,152.83 1037.72,153.71 1037.21,155.06"/>
    </edge>
    <edge id=":1991146585_0" function="internal">
        <lane id=":1991146585_0_0" index="0" disallow="tram rail_urban rail rail_electric rail_fast ship" speed="8.33" length="5.04" shape="643.09,501.13 642.69,506.15"/>
    </edge>
    <edge id=":1991146585_1" function="internal">
        <lane id=":1991146585_1_0" index="0" disallow="tram rail_urban rail rail_electric rail_fast ship" speed="3.65" length="2.34" shape="643.09,501.13 642.20,502.27 641.37,502.61"/>
    </edge>
    <edge id=":1991146585_4" function="internal">
        <lane id=":1991146585_4_0" index="0" disallow="tram rail_urban rail rail_electric rail_fast ship" speed="3.65" length="2.34" shape="641.37,502.61 640.60,502.15 639.90,500.89"/>
    </edge>
    <edge id=":1991146585_2" function="internal">
        <lane id=":1991146585_2_0" index="0" disallow="tram rail_urban rail rail_electric rail_fast ship" speed="8.33" length="5.01" shape="639.50,505.89 639.90,500.89"/>
    </edge>
    <edge id=":1991146585_3" function="internal">
        <lane id=":1991146585_3_0" index="0" disallow="tram rail_urban rail rail_electric rail_fast ship" speed="3.65" length="2.34" shape="639.50,505.89 640.40,504.76 641.23,504.43"/>
    </edge>
    <edge id=":1991146585_5" function="internal">
        <lane id=":1991146585_5_0" index="0" disallow="tram rail_urban rail rail_electric rail_fast ship" speed="3.65" length="2.34" shape="641.23,504.43 641.99,504.89 642.69,506.15"/>
    </edge>
    <edge id=":20246257_0" function="internal">
        <lane id=":20246257_0_0" index="0" disallow="tram rail_urban rail rail_electric rail_fast ship" speed="3.72" length="4.62" shape="207.73,539.54 206.85,540.66 206.03,540.98 205.27,540.53 204.58,539.28"/>
    </edge>
    <edge id=":2071423345_0" function="internal">
        <lane id=":2071423345_0_0" index="0" disallow="tram rail_urban rail rail_electric rail_fast ship" speed="13.89" length="4.94" shape="205.53,500.30 205.95,495.38"/>
    </edge>
    <edge id=":2071423347_0" function="internal">
        <lane id=":2071423347_0_0" index="0" disallow="tram rail_urban rail rail_electric rail_fast ship" speed="13.89" length="5.09" shape="213.77,495.69 213.41,500.76"/>
    </edge>
    <edge id=":2071423355_0" function="internal">
        <lane id=":2071423355_0_0" index="0" disallow="tram rail_urban rail rail_electric rail_fast ship" speed="13.89" length="5.18" shape="204.37,514.24 204.36,512.71 204.38,511.65 204.46,510.60 204.61,509.08"/>
    </edge>
    <edge id=":2071423357_0" function="internal">
        <lane id=":2071423357_0_0" index="0" disallow="tram rail_urban rail rail_electric rail_fast ship" speed="13.89" length="5.20" shape="212.73,509.52 212.61,511.06 212.49,512.12 212.34,513.16 212.07,514.68"/>
    </edge>
    <edge id=":2098466730_0" function="internal">
        <lane id=":2098466730_0_0" index="0" allow="rail_urban" speed="16.67" length="3.03" shape="122.74,134.32 125.76,134.51"/>
    </edge>
    <edge id=":2098466730_1" function="internal">
        <lane id=":2098466730_1_0" index="0" allow="rail_urban" speed="22.22" length="3.04" shape="122.74,134.32 125.75,134.72"/>
    </edge>
    <edge id=":2098466739_0" function="internal">
        <lane id=":2098466739_0_0" index="0" allow="rail_urban" speed="16.67" length="3.02" shape="170.12,136.41 173.14,136.46"/>
    </edge>
    <edge id=":2098466742_0" function="internal">
        <lane id=":2098466742_0_0" index="0" allow="rail_urban" speed="27.78" length="2.85" shape="125.28,138.06 122.44,137.82"/>
    </edge>
    <edge id=":2098466742_1" function="internal">
        <lane id=":2098466742_1_0" index="0" allow="rail_urban" speed="27.78" length="2.84" shape="125.27,137.89 124.43,137.91 123.85,137.91 123.28,137.88 122.44,137.82"/>
    </edge>
    <edge id=":2098466746_0" function="internal">
        <lane id=":2098466746_0_0" index="0" disallow="tram rail_urban rail rail_electric rail_fast ship" speed="8.33" length="5.06" shape="196.03,137.37 201.07,137.72"/>
    </edge>
    <edge id=":2098466751_0" function="internal">
        <lane id=":2098466751_0_0" index="0" allow="rail_urban" speed="27.78" length="2.96" shape="173.06,142.73 170.12,142.38"/>
    </edge>
    <edge id=":2098466775_0" function="internal">
        <lane id=":2098466775_0_0" index="0" disallow="tram rail_urban rail rail_electric rail_fast ship" speed="8.33" length="4.00" shape="189.20,143.76 188.23,143.09 187.50,142.73 186.69,142.55 185.52,142.44"/>
    </edge>
    <edge id=":2098466775_1" function="internal">
        <lane id=":2098466775_1_0" index="0" disallow="tram rail_urban rail rail_electric rail_fast ship" speed="8.33" length="3.88" shape="185.78,139.25 186.92,139.32 187.71,139.26 188.47,139.00 189.48,138.48"/>
    </edge>
    <edge id=":2098466775_2" function="internal">
        <lane id=":2098466775_2_0" index="0" disallow="tram rail_urban rail rail_electric rail_fast ship" speed="3.65" length="4.67" shape="185.78,139.25 186.91,140.15 187.24,140.98 186.78,141.74 185.52,142.44"/>
    </edge>
    <edge id=":2098466783_0" function="internal">
        <lane id=":2098466783_0_0" index="0" allow="rail_urban" speed="22.22" length="0.24" shape="175.27,143.05 175.03,143.02"/>
    </edge>
    <edge id=":2182805373_0" function="internal">
        <lane id=":2182805373_0_0" index="0" allow="rail_urban" speed="22.22" length="0.30" shape="247.28,149.61 246.98,149.59"/>
    </edge>
    <edge id=":25661386_0" function="internal">
        <lane id=":25661386_0_0" index="0" disallow="tram rail_urban rail rail_electric rail_fast ship" speed="3.65" length="4.67" shape="11.49,424.97 10.36,424.07 10.03,423.24 10.50,422.47 11.76,421.78"/>
    </edge>
    <edge id=":25661966_0" function="internal">
        <lane id=":25661966_0_0" index="0" disallow="tram rail_urban rail rail_electric rail_fast ship" speed="3.65" length="4.67" shape="20.08,324.72 18.94,323.84 18.59,323.02 19.04,322.24 20.29,321.52"/>
    </edge>
    <edge id=":25661967_0" function="internal">
        <lane id=":25661967_0_0" index="0" disallow="tram rail_urban rail rail_electric rail_fast ship" speed="3.65" length="4.67" shape="27.02,229.43 25.89,228.53 25.56,227.70 26.02,226.94 27.28,226.24"/>
    </edge>
    <edge id=":25661969_0" function="internal">
        <lane id=":25661969_0_0" index="0" disallow="tram rail_urban rail rail_electric rail_fast ship" speed="3.65" length="4.67" shape="34.91,130.06 33.79,129.16 33.45,128.33 33.92,127.57 35.18,126.87"/>
    </edge>
    <edge id=":25662710_0" function="internal">
        <lane id=":25662710_0_0" index="0" disallow="tram rail_urban rail rail_electric rail_fast ship" speed="7.44" length="11.91" shape="352.01,452.66 349.49,453.03 347.57,454.55 346.24,457.24 345.50,461.08"/>
    </edge>
    <edge id=":25662710_1" function="internal">
        <lane id=":25662710_1_0" index="0" disallow="tram rail_urban rail rail_electric rail_fast ship" speed="8.33" length="14.53" shape="352.01,452.66 337.52,451.52"/>
    </edge>
    <edge id=":25662710_2" function="internal">
        <lane id=":25662710_2_0" index="0" disallow="tram rail_urban rail rail_electric rail_fast ship" speed="8.33" length="7.73" shape="352.01,452.66 348.22,451.62 345.66,449.16 345.57,448.93"/>
    </edge>
    <edge id=":25662710_3" function="internal">
        <lane id=":25662710_3_0" index="0" disallow="tram rail_urban rail rail_electric rail_fast ship" speed="3.65" length="2.57" shape="352.01,452.66 350.87,451.77 350.54,450.95 350.65,450.75"/>
    </edge>
    <edge id=":25662710_16" function="internal">
        <lane id=":25662710_16_0" index="0" disallow="tram rail_urban rail rail_electric rail_fast ship" speed="8.33" length="9.13" shape="345.57,448.93 344.30,445.30 344.17,440.01"/>
    </edge>
    <edge id=":25662710_17" function="internal">
        <lane id=":25662710_17_0" index="0" disallow="tram rail_urban rail rail_electric rail_fast ship" speed="3.65" length="2.11" shape="350.65,450.75 351.00,450.18 352.25,449.47"/>
    </edge>
    <edge id=":25662710_4" function="internal">
        <lane id=":25662710_4_0" index="0" disallow="tram rail_urban rail rail_electric rail_fast ship" speed="7.32" length="11.73" shape="347.36,440.27 347.40,444.13 348.24,446.96 349.85,448.74 352.25,449.47"/>
    </edge>
    <edge id=":25662710_5" function="internal">
        <lane id=":25662710_5_0" index="0" disallow="tram rail_urban rail rail_electric rail_fast ship" speed="8.33" length="20.90" shape="347.36,440.27 345.50,461.08"/>
    </edge>
    <edge id=":25662710_6" function="internal">
        <lane id=":25662710_6_0" index="0" disallow="tram rail_urban rail rail_electric rail_fast ship" speed="8.33" length="8.05" shape="347.36,440.27 346.39,445.46 345.07,447.89"/>
    </edge>
    <edge id=":25662710_7" function="internal">
        <lane id=":25662710_7_0" index="0" disallow="tram rail_urban rail rail_electric rail_fast ship" speed="3.65" length="2.34" shape="347.36,440.27 346.47,441.40 345.64,441.73"/>
    </edge>
    <edge id=":25662710_18" function="internal">
        <lane id=":25662710_18_0" index="0" disallow="tram rail_urban rail rail_electric rail_fast ship" speed="8.33" length="8.90" shape="345.07,447.89 344.43,449.07 341.47,451.09 337.52,451.52"/>
    </edge>
    <edge id=":25662710_19" function="internal">
        <lane id=":25662710_19_0" index="0" disallow="tram rail_urban rail rail_electric rail_fast ship" speed="3.65" length="2.34" shape="345.64,441.73 344.87,441.27 344.17,440.01"/>
    </edge>
    <edge id=":25662710_8" function="internal">
        <lane id=":25662710_8_0" index="0" disallow="tram rail_urban rail rail_electric rail_fast ship" speed="6.53" length="9.11" shape="338.04,445.14 340.56,444.99 342.42,444.09 343.62,442.43 344.17,440.01"/>
    </edge>
    <edge id=":25662710_9" function="internal">
        <lane id=":25662710_9_0" index="0" disallow="tram rail_urban rail rail_electric rail_fast ship" speed="8.33" length="14.94" shape="338.04,445.14 342.68,446.02 346.05,447.39 348.97,448.72 352.25,449.47"/>
    </edge>
    <edge id=":25662710_10" function="internal">
        <lane id=":25662710_10_0" index="0" disallow="tram rail_urban rail rail_electric rail_fast ship" speed="8.33" length="5.29" shape="337.78,448.33 341.61,449.40 342.55,450.31"/>
    </edge>
    <edge id=":25662710_11" function="internal">
        <lane id=":25662710_11_0" index="0" disallow="tram rail_urban rail rail_electric rail_fast ship" speed="3.65" length="2.34" shape="337.78,448.33 338.91,449.22 339.25,450.05"/>
    </edge>
    <edge id=":25662710_20" function="internal">
        <lane id=":25662710_20_0" index="0" disallow="tram rail_urban rail rail_electric rail_fast ship" speed="8.33" length="11.67" shape="342.55,450.31 344.17,451.88 345.47,455.78 345.50,461.08"/>
    </edge>
    <edge id=":25662710_21" function="internal">
        <lane id=":25662710_21_0" index="0" disallow="tram rail_urban rail rail_electric rail_fast ship" speed="3.65" length="2.34" shape="339.25,450.05 338.78,450.82 337.52,451.52"/>
    </edge>
    <edge id=":25662710_12" function="internal">
        <lane id=":25662710_12_0" index="0" disallow="tram rail_urban rail rail_electric rail_fast ship" speed="6.47" length="9.03" shape="342.31,460.77 342.21,458.29 341.33,456.45 339.68,455.26 337.26,454.71"/>
    </edge>
    <edge id=":25662710_13" function="internal">
        <lane id=":25662710_13_0" index="0" disallow="tram rail_urban rail rail_electric rail_fast ship" speed="8.33" length="20.83" shape="342.31,460.77 344.17,440.01"/>
    </edge>
    <edge id=":25662710_14" function="internal">
        <lane id=":25662710_14_0" index="0" disallow="tram rail_urban rail rail_electric rail_fast ship" speed="8.33" length="7.75" shape="342.31,460.77 343.38,455.57 344.57,453.44"/>
    </edge>
    <edge id=":25662710_15" function="internal">
        <lane id=":25662710_15_0" index="0" disallow="tram rail_urban rail rail_electric rail_fast ship" speed="3.65" length="2.34" shape="342.31,460.77 343.23,459.65 344.06,459.33"/>
    </edge>
    <edge id=":25662710_22" function="internal">
        <lane id=":25662710_22_0" index="0" disallow="tram rail_urban rail rail_electric rail_fast ship" speed="8.33" length="9.21" shape="344.57,453.44 345.40,451.96 348.35,449.93 352.25,449.47"/>
    </edge>
    <edge id=":25662710_23" function="internal">