<?xml version="1.0" encoding="UTF-8"?>

<!-- generated on 06/22/15 10:10:44 by SUMO jtrrouter Version dev-SVN-r18493
<?xml version="1.0" encoding="UTF-8"?>

<configuration xmlns:xsi="http://www.w3.org/2001/XMLSchema-instance" xsi:noNamespaceSchemaLocation="http://sumo.dlr.de/xsd/jtrrouterConfiguration.xsd">

    <input>
        <net-file value="inter_palmas_notls.net.xml"/>
        <flow-files value="inter_palmas_demand.trips.xml"/>
        <turn-ratio-files value="inter_palmas_demand.turns.xml"/>
    </input>

    <output>
        <output-file value="inter_palmas_demand.rou.xml"/>
    </output>

    <processing>
        <ignore-errors value="true"/>
    </processing>

    <report>
        <verbose value="true"/>
    </report>

</configuration>
-->

<routes xmlns:xsi="http://www.w3.org/2001/XMLSchema-instance" xsi:noNamespaceSchemaLocation="http://sumo.dlr.de/xsd/routes_file.xsd">
    <vType id="taxi" vClass="taxi"/>
    <vehicle id="-3801.0" type="taxi" depart="50400.00">
        <route edges="-380 -465 -436#0 -436#1"/>
    </vehicle>
    <vType id="carro" vClass="passenger" guiShape="passenger" color="red"/>
    <vehicle id="30659373#01.0" type="carro" depart="50400.00">
        <route edges="30659373#0 30659375 -436#1"/>
    </vehicle>
    <vehicle id="33463249#01.0" type="taxi" depart="50400.00">
        <route edges="33463249#0 33463249#1 -447 -461#0 -461#1"/>
    </vehicle>
    <vehicle id="-3801.1" type="taxi" depart="50404.50">
        <route edges="-380 -465 -436#0 -436#1"/>
    </vehicle>
    <vehicle id="33463249#01.1" type="taxi" depart="50404.50">
        <route edges="33463249#0 33463249#1 -447 -461#0 -461#1"/>
    </vehicle>
    <vehicle id="30659373#01.1" type="carro" depart="50407.20">
        <route edges="30659373#0 30659373#1 30659170 -461#1"/>
    </vehicle>
    <vehicle id="-3801.2" type="taxi" depart="50409.00">
        <route edges="-380 -465 -436#0 -436#1"/>
    </vehicle>
    <vehicle id="33463249#01.2" type="taxi" depart="50409.00">
        <route edges="33463249#0 33463249#1 -447 -461#0 -461#1"/>
    </vehicle>
    <vehicle id="-3801.3" type="taxi" depart="50413.50">
        <route edges="-380 -465 -436#0 -436#1"/>
    </vehicle>
    <vehicle id="33463249#01.3" type="taxi" depart="50413.50">
        <route edges="33463249#0 33463249#1 -447 -461#0 -461#1"/>
    </vehicle>
    <vehicle id="30659373#01.2" type="carro" depart="50414.40">
        <route edges="30659373#0 30659373#1 30659170 -461#1"/>
    </vehicle>
    <vehicle id="-3801.4" type="taxi" depart="50418.00">
        <route edges="-380 -465 -436#0 -436#1"/>
    </vehicle>
    <vehicle id="33463249#01.4" type="taxi" depart="50418.00">
        <route edges="33463249#0 33463249#1 -447 -461#0 -461#1"/>
    </vehicle>
    <vehicle id="30659373#01.3" type="carro" depart="50421.60">
        <route edges="30659373#0 30659373#1 30659170 -461#1"/>
    </vehicle>
    <vehicle id="-3801.5" type="taxi" depart="50422.50">
        <route edges="-380 -465 -436#0 -436#1"/>
    </vehicle>
    <vehicle id="33463249#01.5" type="taxi" depart="50422.50">
        <route edges="33463249#0 33463249#1 -447 -461#0 -461#1"/>
    </vehicle>
    <vehicle id="-3801.6" type="taxi" depart="50427.00">
        <route edges="-380 -465 -436#0 -436#1"/>
    </vehicle>
    <vehicle id="33463249#01.6" type="taxi" depart="50427.00">
        <route edges="33463249#0 33463249#1 -447 -461#0 -461#1"/>
    </vehicle>
    <vehicle id="30659373#01.4" type="carro" depart="50428.80">
        <route edges="30659373#0 30659373#1 30659170 -461#1"/>
    </vehicle>
    <vehicle id="-3801.7" type="taxi" depart="50431.50">
        <route edges="-380 -465 -436#0 -436#1"/>
    </vehicle>
    <vehicle id="33463249#01.7" type="taxi" depart="50431.50">
        <route edges="33463249#0 33463249#1 -447 -461#0 -461#1"/>
    </vehicle>
    <vehicle id="-3801.8" type="taxi" depart="50436.00">
        <route edges="-380 -465 -436#0 -436#1"/>
    </vehicle>
    <vehicle id="30659373#01.5" type="carro" depart="50436.00">
        <route edges="30659373#0 30659373#1 30659170 -461#1"/>
    </vehicle>
    <vehicle id="33463249#01.8" type="taxi" depart="50436.00">
        <route edges="33463249#0 33463249#1 -447 -461#0 -461#1"/>
    </vehicle>
    <vehicle id="-3801.9" type="taxi" depart="50440.50">
        <route edges="-380 -465 -436#0 -436#1"/>
    </vehicle>
    <vehicle id="33463249#01.9" type="taxi" depart="50440.50">
        <route edges="33463249#0 33463249#1 -447 -461#0 -461#1"/>
    </vehicle>
    <vehicle id="30659373#01.6" type="carro" depart="50443.20">
        <route edges="30659373#0 30659373#1 30659170 -461#1"/>
    </vehicle>
    <vehicle id="-3801.10" type="taxi" depart="50445.00">
        <route edges="-380 -465 -436#0 -436#1"/>
    </vehicle>
    <vehicle id="33463249#01.10" type="taxi" depart="50445.00">
        <route edges="33463249#0 33463249#1 -447 -461#0 -461#1"/>
    </vehicle>
    <vehicle id="-3801.11" type="taxi" depart="50449.50">
        <route edges="-380 -465 -436#0 -436#1"/>
    </vehicle>
    <vehicle id="33463249#01.11" type="taxi" depart="50449.50">
        <route edges="33463249#0 30659403 30659405"/>
    </vehicle>
    <vehicle id="30659373#01.7" type="carro" depart="50450.40">
        <route edges="30659373#0 30659373#1 30659170 -461#1"/>
    </vehicle>
    <vehicle id="-3801.12" type="taxi" depart="50454.00">
        <route edges="-380 -465 -436#0 -436#1"/>
    </vehicle>
    <vehicle id="33463249#01.12" type="taxi" depart="50454.00">
        <route edges="33463249#0 33463249#1 -447 -461#0 -461#1"/>
    </vehicle>
    <vehicle id="30659373#01.8" type="carro" depart="50457.60">
        <route edges="30659373#0 30659375 -436#1"/>
    </vehicle>
    <vehicle id="-3801.13" type="taxi" depart="50458.50">
        <route edges="-380 -465 -436#0 -436#1"/>
    </vehicle>
    <vehicle id="33463249#01.13" type="taxi" depart="50458.50">
        <route edges="33463249#0 33463249#1 -447 -461#0 -461#1"/>
    </vehicle>
    <vehicle id="-3801.14" type="taxi" depart="50463.00">
        <route edges="-380 -465 -436#0 -436#1"/>
    </vehicle>
    <vehicle id="33463249#01.14" type="taxi" depart="50463.00">
        <route edges="33463249#0 33463249#1 -447 -461#0 -461#1"/>
    </vehicle>
    <vehicle id="30659373#01.9" type="carro" depart="50464.80">
        <route edges="30659373#0 30659373#1 30659170 -461#1"/>
    </vehicle>
    <vehicle id="-3801.15" type="taxi" depart="50467.50">
        <route edges="-380 -465 -436#0 -436#1"/>
    </vehicle>
    <vehicle id="33463249#01.15" type="taxi" depart="50467.50">
        <route edges="33463249#0 30659403 30659405"/>
    </vehicle>
    <vehicle id="-3801.16" type="taxi" depart="50472.00">
        <route edges="-380 -465 -436#0 -436#1"/>
    </vehicle>
    <vehicle id="30659373#01.10" type="carro" depart="50472.00">
        <route edges="30659373#0 30659375 -436#1"/>
    </vehicle>
    <vehicle id="33463249#01.16" type="taxi" depart="50472.00">
        <route edges="33463249#0 33463249#1 -447 -461#0 -461#1"/>
    </vehicle>
    <vehicle id="-3801.17" type="taxi" depart="50476.50">
        <route edges="-380 -465 -436#0 -436#1"/>
    </vehicle>
    <vehicle id="33463249#01.17" type="taxi" depart="50476.50">
        <route edges="33463249#0 33463249#1 -447 -461#0 -461#1"/>
    </vehicle>
    <vehicle id="30659373#01.11" type="carro" depart="50479.20">
        <route edges="30659373#0 30659375 -436#1"/>
    </vehicle>
    <vehicle id="-3801.18" type="taxi" depart="50481.00">
        <route edges="-380 -465 -436#0 -436#1"/>
    </vehicle>
    <vehicle id="33463249#01.18" type="taxi" depart="50481.00">
        <route edges="33463249#0 30659403 30659405"/>
    </vehicle>
    <vehicle id="-3801.19" type="taxi" depart="50485.50">
        <route edges="-380 -465 -436#0 -436#1"/>
    </vehicle>
    <vehicle id="33463249#01.19" type="taxi" depart="50485.50">
        <route edges="33463249#0 33463249#1 -447 -461#0 -461#1"/>
    </vehicle>
    <vehicle id="30659373#01.12" type="carro" depart="50486.40">
        <route edges="30659373#0 30659375 -436#1"/>
    </vehicle>
    <vehicle id="-3801.20" type="taxi" depart="50490.00">
        <route edges="-380 -465 -436#0 -436#1"/>
    </vehicle>
    <vehicle id="33463249#01.20" type="taxi" depart="50490.00">
        <route edges="33463249#0 30659403 30659405"/>
    </vehicle>
    <vehicle id="30659373#01.13" type="carro" depart="50493.60">
        <route edges="30659373#0 30659375 -436#1"/>
    </vehicle>
    <vehicle id="-3801.21" type="taxi" depart="50494.50">
        <route edges="-380 -465 -436#0 -436#1"/>
    </vehicle>
    <vehicle id="33463249#01.21" type="taxi" depart="50494.50">
        <route edges="33463249#0 33463249#1 -447 -461#0 -461#1"/>
    </vehicle>
    <vehicle id="-3801.22" type="taxi" depart="50499.00">
        <route edges="-380 -465 -436#0 -436#1"/>
    </vehicle>
    <vehicle id="33463249#01.22" type="taxi" depart="50499.00">
        <route edges="33463249#0 33463249#1 -447 -461#0 -461#1"/>
    </vehicle>
    <vehicle id="30659373#01.14" type="carro" depart="50500.80">
        <route edges="30659373#0 30659373#1 30659170 -461#1"/>
    </vehicle>
    <vehicle id="-3801.23" type="taxi" depart="50503.50">
        <route edges="-380 -465 -436#0 -436#1"/>
    </vehicle>
    <vehicle id="33463249#01.23" type="taxi" depart="50503.50">
        <route edges="33463249#0 33463249#1 -447 -461#0 -461#1"/>
    </vehicle>
    <vehicle id="-3801.24" type="taxi" depart="50508.00">
        <route edges="-380 -465 -436#0 -436#1"/>
    </vehicle>
    <vehicle id="30659373#01.15" type="carro" depart="50508.00">
        <route edges="30659373#0 30659375 -436#1"/>
    </vehicle>
    <vehicle id="33463249#01.24" type="taxi" depart="50508.00">
        <route edges="33463249#0 33463249#1 -447 -461#0 -461#1"/>
    </vehicle>
    <vehicle id="-3801.25" type="taxi" depart="50512.50">
        <route edges="-380 -465 -436#0 -436#1"/>
    </vehicle>
    <vehicle id="33463249#01.25" type="taxi" depart="50512.50">
        <route edges="33463249#0 33463249#1 -447 -461#0 -461#1"/>
    </vehicle>
    <vehicle id="30659373#01.16" type="carro" depart="50515.20">
        <route edges="30659373#0 30659373#1 30659170 -461#1"/>
    </vehicle>
    <vehicle id="-3801.26" type="taxi" depart="50517.00">
        <route edges="-380 -465 -436#0 -436#1"/>
    </vehicle>
    <vehicle id="33463249#01.26" type="taxi" depart="50517.00">
        <route edges="33463249#0 33463249#1 -447 -461#0 -461#1"/>
    </vehicle>
    <vehicle id="-3801.27" type="taxi" depart="50521.50">
        <route edges="-380 -465 -436#0 -436#1"/>
    </vehicle>
    <vehicle id="33463249#01.27" type="taxi" depart="50521.50">
        <route edges="33463249#0 33463249#1 -447 -461#0 -461#1"/>
    </vehicle>
    <vehicle id="30659373#01.17" type="carro" depart="50522.40">
        <route edges="30659373#0 30659373#1 30659170 -461#1"/>
    </vehicle>
    <vehicle id="-3801.28" type="taxi" depart="50526.00">
        <route edges="-380 -465 -436#0 -436#1"/>
    </vehicle>
    <vehicle id="33463249#01.28" type="taxi" depart="50526.00">
        <route edges="33463249#0 30659403 30659405"/>
    </vehicle>
    <vehicle id="30659373#01.18" type="carro" depart="50529.60">
        <route edges="30659373#0 30659375 -436#1"/>
    </vehicle>
    <vehicle id="-3801.29" type="taxi" depart="50530.50">
        <route edges="-380 -465 -436#0 -436#1"/>
    </vehicle>
    <vehicle id="33463249#01.29" type="taxi" depart="50530.50">
        <route edges="33463249#0 33463249#1 -447 -461#0 -461#1"/>
    </vehicle>
    <vehicle id="-3801.30" type="taxi" depart="50535.00">
        <route edges="-380 -465 -436#0 -436#1"/>
    </vehicle>
    <vehicle id="33463249#01.30" type="taxi" depart="50535.00">
        <route edges="33463249#0 33463249#1 -447 -461#0 -461#1"/>
    </vehicle>
    <vehicle id="30659373#01.19" type="carro" depart="50536.80">
        <route edges="30659373#0 30659375 -436#1"/>
    </vehicle>
    <vehicle id="-3801.31" type="taxi" depart="50539.50">
        <route edges="-380 -465 -436#0 -436#1"/>
    </vehicle>
    <vehicle id="33463249#01.31" type="taxi" depart="50539.50">
        <route edges="33463249#0 33463249#1 -447 -461#0 -461#1"/>
    </vehicle>
    <vehicle id="-3801.32" type="taxi" depart="50544.00">
        <route edges="-380 -465 -436#0 -436#1"/>
    </vehicle>
    <vehicle id="30659373#01.20" type="carro" depart="50544.00">
        <route edges="30659373#0 30659375 -436#1"/>
    </vehicle>
    <vehicle id="33463249#01.32" type="taxi" depart="50544.00">
        <route edges="33463249#0 33463249#1 -447 -461#0 -461#1"/>
    </vehicle>
    <vehicle id="-3801.33" type="taxi" depart="50548.50">
        <route edges="-380 -465 -436#0 -436#1"/>
    </vehicle>
    <vehicle id="33463249#01.33" type="taxi" depart="50548.50">
        <route edges="33463249#0 33463249#1 -447 -461#0 -461#1"/>
    </vehicle>
    <vehicle id="30659373#01.21" type="carro" depart="50551.20">
        <route edges="30659373#0 30659375 -436#1"/>
    </vehicle>
    <vehicle id="-3801.34" type="taxi" depart="50553.00">
        <route edges="-380 -465 -436#0 -436#1"/>
    </vehicle>
    <vehicle id="33463249#01.34" type="taxi" depart="50553.00">
        <route edges="33463249#0 33463249#1 -447 -461#0 -461#1"/>
    </vehicle>
    <vehicle id="-3801.35" type="taxi" depart="50557.50">
        <route edges="-380 -465 -436#0 -436#1"/>
    </vehicle>
    <vehicle id="33463249#01.35" type="taxi" depart="50557.50">
        <route edges="33463249#0 33463249#1 -447 -461#0 -461#1"/>
    </vehicle>
    <vehicle id="30659373#01.22" type="carro" depart="50558.40">
        <route edges="30659373#0 30659373#1 30659170 -461#1"/>
    </vehicle>
    <vehicle id="-3801.36" type="taxi" depart="50562.00">
        <route edges="-380 -465 -436#0 -436#1"/>
    </vehicle>
    <vehicle id="33463249#01.36" type="taxi" depart="50562.00">
        <route edges="33463249#0 30659403 30659405"/>
    </vehicle>
    <vehicle id="30659373#01.23" type="carro" depart="50565.60">
        <route edges="30659373#0 30659375 -436#1"/>
    </vehicle>
    <vehicle id="-3801.37" type="taxi" depart="50566.50">
        <route edges="-380 -465 -436#0 -436#1"/>
    </vehicle>
    <vehicle id="33463249#01.37" type="taxi" depart="50566.50">
        <route edges="33463249#0 30659403 30659405"/>
    </vehicle>
    <vehicle id="-3801.38" type="taxi" depart="50571.00">
        <route edges="-380 -465 -436#0 -436#1"/>
    </vehicle>
    <vehicle id="33463249#01.38" type="taxi" depart="50571.00">
        <route edges="33463249#0 30659403 30659405"/>
    </vehicle>
    <vehicle id="30659373#01.24" type="carro" depart="50572.80">
        <route edges="30659373#0 30659375 -436#1"/>
    </vehicle>
    <vehicle id="-3801.39" type="taxi" depart="50575.50">
        <route edges="-380 -465 -436#0 -436#1"/>
    </vehicle>
    <vehicle id="33463249#01.39" type="taxi" depart="50575.50">
        <route edges="33463249#0 33463249#1 -447 -461#0 -461#1"/>
    </vehicle>
    <vehicle id="-3801.40" type="taxi" depart="50580.00">
        <route edges="-380 -465 -436#0 -436#1"/>
    </vehicle>
    <vehicle id="30659373#01.25" type="carro" depart="50580.00">
        <route edges="30659373#0 30659373#1 30659170 -461#1"/>
    </vehicle>
    <vehicle id="33463249#01.40" type="taxi" depart="50580.00">
        <route edges="33463249#0 33463249#1 -447 -461#0 -461#1"/>
    </vehicle>
    <vehicle id="-3801.41" type="taxi" depart="50584.50">
        <route edges="-380 -465 -436#0 -436#1"/>
    </vehicle>
    <vehicle id="33463249#01.41" type="taxi" depart="50584.50">
        <route edges="33463249#0 33463249#1 -447 -461#0 -461#1"/>
    </vehicle>
    <vehicle id="30659373#01.26" type="carro" depart="50587.20">
        <route edges="30659373#0 30659375 -436#1"/>
    </vehicle>
    <vehicle id="-3801.42" type="taxi" depart="50589.00">
        <route edges="-380 -465 -436#0 -436#1"/>
    </vehicle>
    <vehicle id="33463249#01.42" type="taxi" depart="50589.00">
        <route edges="33463249#0 30659403 30659405"/>
    </vehicle>
    <vehicle id="-3801.43" type="taxi" depart="50593.50">
        <route edges="-380 -465 -436#0 -436#1"/>
    </vehicle>
    <vehicle id="33463249#01.43" type="taxi" depart="50593.50">
        <route edges="33463249#0 33463249#1 -447 -461#0 -461#1"/>
    </vehicle>
    <vehicle id="30659373#01.27" type="carro" depart="50594.40">
        <route edges="30659373#0 30659375 -436#1"/>
    </vehicle>
    <vehicle id="-3801.44" type="taxi" depart="50598.00">
        <route edges="-380 -465 -436#0 -436#1"/>
    </vehicle>
    <vehicle id="33463249#01.44" type="taxi" depart="50598.00">
        <route edges="33463249#0 30659403 30659405"/>
    </vehicle>
    <vehicle id="30659373#01.28" type="carro" depart="50601.60">
        <route edges="30659373#0 30659373#1 30659170 -461#1"/>
    </vehicle>
    <vehicle id="-3801.45" type="taxi" depart="50602.50">
        <route edges="-380 -465 -436#0 -436#1"/>
    </vehicle>
    <vehicle id="33463249#01.45" type="taxi" depart="50602.50">
        <route edges="33463249#0 33463249#1 -447 -461#0 -461#1"/>
    </vehicle>
    <vehicle id="-3801.46" type="taxi" depart="50607.00">
        <route edges="-380 -465 -436#0 -436#1"/>
    </vehicle>
    <vehicle id="33463249#01.46" type="taxi" depart="50607.00">
        <route edges="33463249#0 33463249#1 -447 -461#0 -461#1"/>
    </vehicle>
    <vehicle id="30659373#01.29" type="carro" depart="50608.80">
        <route edges="30659373#0 30659375 -436#1"/>
    </vehicle>
    <vehicle id="-3801.47" type="taxi" depart="50611.50">
        <route edges="-380 -465 -436#0 -436#1"/>
    </vehicle>
    <vehicle id="33463249#01.47" type="taxi" depart="50611.50">
        <route edges="33463249#0 33463249#1 -447 -461#0 -461#1"/>
    </vehicle>
    <vehicle id="-3801.48" type="taxi" depart="50616.00">
        <route edges="-380 -465 -436#0 -436#1"/>
    </vehicle>
    <vehicle id="30659373#01.30" type="carro" depart="50616.00">
        <route edges="30659373#0 30659375 -436#1"/>
    </vehicle>
    <vehicle id="33463249#01.48" type="taxi" depart="50616.00">
        <route edges="33463249#0 33463249#1 -447 -461#0 -461#1"/>
    </vehicle>
    <vehicle id="-3801.49" type="taxi" depart="50620.50">
        <route edges="-380 -465 -436#0 -436#1"/>
    </vehicle>
    <vehicle id="33463249#01.49" type="taxi" depart="50620.50">
        <route edges="33463249#0 30659403 30659405"/>
    </vehicle>
    <vehicle id="30659373#01.31" type="carro" depart="50623.20">
        <route edges="30659373#0 30659375 -436#1"/>
    </vehicle>
    <vehicle id="-3801.50" type="taxi" depart="50625.00">
        <route edges="-380 -465 -436#0 -436#1"/>
    </vehicle>
    <vehicle id="33463249#01.50" type="taxi" depart="50625.00">
        <route edges="33463249#0 33463249#1 -447 -461#0 -461#1"/>
    </vehicle>
    <vehicle id="-3801.51" type="taxi" depart="50629.50">
        <route edges="-380 -465 -436#0 -436#1"/>
    </vehicle>
    <vehicle id="33463249#01.51" type="taxi" depart="50629.50">
        <route edges="33463249#0 33463249#1 -447 -461#0 -461#1"/>
    </vehicle>
    <vehicle id="30659373#01.32" type="carro" depart="50630.40">
        <route edges="30659373#0 30659373#1 30659170 -461#1"/>
    </vehicle>
    <vehicle id="-3801.52" type="taxi" depart="50634.00">
        <route edges="-380 -465 -436#0 -436#1"/>
    </vehicle>
    <vehicle id="33463249#01.52" type="taxi" depart="50634.00">
        <route edges="33463249#0 33463249#1 -447 -461#0 -461#1"/>
    </vehicle>
    <vehicle id="30659373#01.33" type="carro" depart="50637.60">
        <route edges="30659373#0 30659373#1 30659170 -461#1"/>
    </vehicle>
    <vehicle id="-3801.53" type="taxi" depart="50638.50">
        <route edges="-380 -465 -436#0 -436#1"/>
    </vehicle>
    <vehicle id="33463249#01.53" type="taxi" depart="50638.50">
        <route edges="33463249#0 30659403 30659405"/>
    </vehicle>
    <vehicle id="-3801.54" type="taxi" depart="50643.00">
        <route edges="-380 -465 -436#0 -436#1"/>
    </vehicle>
    <vehicle id="33463249#01.54" type="taxi" depart="50643.00">
        <route edges="33463249#0 30659403 30659405"/>
    </vehicle>
    <vehicle id="30659373#01.34" type="carro" depart="50644.80">
        <route edges="30659373#0 30659375 -436#1"/>
    </vehicle>
    <vehicle id="-3801.55" type="taxi" depart="50647.50">
        <route edges="-380 -465 -436#0 -436#1"/>
    </vehicle>
    <vehicle id="33463249#01.55" type="taxi" depart="50647.50">
        <route edges="33463249#0 30659403 30659405"/>
    </vehicle>
    <vehicle id="-3801.56" type="taxi" depart="50652.00">
        <route edges="-380 -465 -436#0 -436#1"/>
    </vehicle>
    <vehicle id="30659373#01.35" type="carro" depart="50652.00">
        <route edges="30659373#0 30659375 -436#1"/>
    </vehicle>
    <vehicle id="33463249#01.56" type="taxi" depart="50652.00">
        <route edges="33463249#0 33463249#1 -447 -461#0 -461#1"/>
    </vehicle>
    <vehicle id="-3801.57" type="taxi" depart="50656.50">
        <route edges="-380 -465 -436#0 -436#1"/>
    </vehicle>
    <vehicle id="33463249#01.57" type="taxi" depart="50656.50">
        <route edges="33463249#0 30659403 30659405"/>
    </vehicle>
    <vehicle id="30659373#01.36" type="carro" depart="50659.20">
        <route edges="30659373#0 30659373#1 30659170 -461#1"/>
    </vehicle>
    <vehicle id="-3801.58" type="taxi" depart="50661.00">
        <route edges="-380 -465 -436#0 -436#1"/>
    </vehicle>
    <vehicle id="33463249#01.58" type="taxi" depart="50661.00">
        <route edges="33463249#0 33463249#1 -447 -461#0 -461#1"/>
    </vehicle>
    <vehicle id="-3801.59" type="taxi" depart="50665.50">
        <route edges="-380 -465 -436#0 -436#1"/>
    </vehicle>
    <vehicle id="33463249#01.59" type="taxi" depart="50665.50">
        <route edges="33463249#0 33463249#1 -447 -461#0 -461#1"/>
    </vehicle>
    <vehicle id="30659373#01.37" type="carro" depart="50666.40">
        <route edges="30659373#0 30659373#1 30659170 -461#1"/>
    </vehicle>
    <vehicle id="-3801.60" type="taxi" depart="50670.00">
        <route edges="-380 -465 -436#0 -436#1"/>
    </vehicle>
    <vehicle id="33463249#01.60" type="taxi" depart="50670.00">
        <route edges="33463249#0 30659403 30659405"/>
    </vehicle>
    <vehicle id="30659373#01.38" type="carro" depart="50673.60">
        <route edges="30659373#0 30659375 -436#1"/>
    </vehicle>
    <vehicle id="-3801.61" type="taxi" depart="50674.50">
        <route edges="-380 -465 -436#0 -436#1"/>
    </vehicle>
    <vehicle id="33463249#01.61" type="taxi" depart="50674.50">
        <route edges="33463249#0 33463249#1 -447 -461#0 -461#1"/>
    </vehicle>
    <vehicle id="-3801.62" type="taxi" depart="50679.00">
        <route edges="-380 -465 -436#0 -436#1"/>
    </vehicle>
    <vehicle id="33463249#01.62" type="taxi" depart="50679.00">
        <route edges="33463249#0 33463249#1 -447 -461#0 -461#1"/>
    </vehicle>
    <vehicle id="30659373#01.39" type="carro" depart="50680.80">
        <route edges="30659373#0 30659373#1 30659170 -461#1"/>
    </vehicle>
    <vehicle id="-3801.63" type="taxi" depart="50683.50">
        <route edges="-380 -465 -436#0 -436#1"/>
    </vehicle>
    <vehicle id="33463249#01.63" type="taxi" depart="50683.50">
        <route edges="33463249#0 33463249#1 -447 -461#0 -461#1"/>
    </vehicle>
    <vehicle id="-3801.64" type="taxi" depart="50688.00">
        <route edges="-380 -465 -436#0 -436#1"/>
    </vehicle>
    <vehicle id="30659373#01.40" type="carro" depart="50688.00">
        <route edges="30659373#0 30659375 -436#1"/>
    </vehicle>
    <vehicle id="33463249#01.64" type="taxi" depart="50688.00">
        <route edges="33463249#0 33463249#1 -447 -461#0 -461#1"/>
    </vehicle>
    <vehicle id="-3801.65" type="taxi" depart="50692.50">
        <route edges="-380 -465 -436#0 -436#1"/>
    </vehicle>
    <vehicle id="33463249#01.65" type="taxi" depart="50692.50">
        <route edges="33463249#0 33463249#1 -447 -461#0 -461#1"/>
    </vehicle>
    <vehicle id="30659373#01.41" type="carro" depart="50695.20">
        <route edges="30659373#0 30659375 -436#1"/>
    </vehicle>
    <vehicle id="-3801.66" type="taxi" depart="50697.00">
        <route edges="-380 -465 -436#0 -436#1"/>
    </vehicle>
    <vehicle id="33463249#01.66" type="taxi" depart="50697.00">
        <route edges="33463249#0 33463249#1 -447 -461#0 -461#1"/>
    </vehicle>
    <vehicle id="-3801.67" type="taxi" depart="50701.50">
        <route edges="-380 -465 -436#0 -436#1"/>
    </vehicle>
    <vehicle id="33463249#01.67" type="taxi" depart="50701.50">
        <route edges="33463249#0 33463249#1 -447 -461#0 -461#1"/>
    </vehicle>
    <vehicle id="30659373#01.42" type="carro" depart="50702.40">
        <route edges="30659373#0 30659373#1 30659170 -461#1"/>
    </vehicle>
    <vehicle id="-3801.68" type="taxi" depart="50706.00">
        <route edges="-380 -465 -436#0 -436#1"/>
    </vehicle>
    <vehicle id="33463249#01.68" type="taxi" depart="50706.00">
        <route edges="33463249#0 33463249#1 -447 -461#0 -461#1"/>
    </vehicle>
    <vehicle id="30659373#01.43" type="carro" depart="50709.60">
        <route edges="30659373#0 30659375 -436#1"/>
    </vehicle>
    <vehicle id="-3801.69" type="taxi" depart="50710.50">
        <route edges="-380 -465 -436#0 -436#1"/>
    </vehicle>
    <vehicle id="33463249#01.69" type="taxi" depart="50710.50">
        <route edges="33463249#0 33463249#1 -447 -461#0 -461#1"/>
    </vehicle>
    <vehicle id="-3801.70" type="taxi" depart="50715.00">
        <route edges="-380 -465 -436#0 -436#1"/>
    </vehicle>
    <vehicle id="33463249#01.70" type="taxi" depart="50715.00">
        <route edges="33463249#0 30659403 30659405"/>
    </vehicle>
    <vehicle id="30659373#01.44" type="carro" depart="50716.80">
        <route edges="30659373#0 30659375 -436#1"/>
    </vehicle>
    <vehicle id="-3801.71" type="taxi" depart="50719.50">
        <route edges="-380 -465 -436#0 -436#1"/>
    </vehicle>
    <vehicle id="33463249#01.71" type="taxi" depart="50719.50">
        <route edges="33463249#0 33463249#1 -447 -461#0 -461#1"/>
    </vehicle>
    <vehicle id="-3801.72" type="taxi" depart="50724.00">
        <route edges="-380 -465 -436#0 -436#1"/>
    </vehicle>
    <vehicle id="30659373#01.45" type="carro" depart="50724.00">
        <route edges="30659373#0 30659375 -436#1"/>
    </vehicle>
    <vehicle id="33463249#01.72" type="taxi" depart="50724.00">
        <route edges="33463249#0 33463249#1 -447 -461#0 -461#1"/>
    </vehicle>
    <vehicle id="-3801.73" type="taxi" depart="50728.50">
        <route edges="-380 -465 -436#0 -436#1"/>
    </vehicle>
    <vehicle id="33463249#01.73" type="taxi" depart="50728.50">
        <route edges="33463249#0 33463249#1 -447 -461#0 -461#1"/>
    </vehicle>
    <vehicle id="30659373#01.46" type="carro" depart="50731.20">
        <route edges="30659373#0 30659373#1 30659170 -461#1"/>
    </vehicle>
    <vehicle id="-3801.74" type="taxi" depart="50733.00">
        <route edges="-380 -465 -436#0 -436#1"/>
    </vehicle>
    <vehicle id="33463249#01.74" type="taxi" depart="50733.00">
        <route edges="33463249#0 33463249#1 -447 -461#0 -461#1"/>
    </vehicle>
    <vehicle id="-3801.75" type="taxi" depart="50737.50">
        <route edges="-380 -465 -436#0 -436#1"/>
    </vehicle>
    <vehicle id="33463249#01.75" type="taxi" depart="50737.50">
        <route edges="33463249#0 33463249#1 -447 -461#0 -461#1"/>
    </vehicle>
    <vehicle id="30659373#01.47" type="carro" depart="50738.40">
        <route edges="30659373#0 30659373#1 30659170 -461#1"/>
    </vehicle>
    <vehicle id="-3801.76" type="taxi" depart="50742.00">
        <route edges="-380 -465 -436#0 -436#1"/>
    </vehicle>
    <vehicle id="33463249#01.76" type="taxi" depart="50742.00">
        <route edges="33463249#0 33463249#1 -447 -461#0 -461#1"/>
    </vehicle>
    <vehicle id="30659373#01.48" type="carro" depart="50745.60">
        <route edges="30659373#0 30659375 -436#1"/>
    </vehicle>
    <vehicle id="-3801.77" type="taxi" depart="50746.50">
        <route edges="-380 -465 -436#0 -436#1"/>
    </vehicle>
    <vehicle id="33463249#01.77" type="taxi" depart="50746.50">
        <route edges="33463249#0 33463249#1 -447 -461#0 -461#1"/>
    </vehicle>
    <vehicle id="-3801.78" type="taxi" depart="50751.00">
        <route edges="-380 -465 -436#0 -436#1"/>
    </vehicle>
    <vehicle id="33463249#01.78" type="taxi" depart="50751.00">
        <route edges="33463249#0 33463249#1 -447 -461#0 -461#1"/>
    </vehicle>
    <vehicle id="30659373#01.49" type="carro" depart="50752.80">
        <route edges="30659373#0 30659373#1 30659170 -461#1"/>
    </vehicle>
    <vehicle id="-3801.79" type="taxi" depart="50755.50">
        <route edges="-380 -465 -436#0 -436#1"/>
    </vehicle>
    <vehicle id="33463249#01.79" type="taxi" depart="50755.50">
        <route edges="33463249#0 33463249#1 -447 -461#0 -461#1"/>
    </vehicle>
    <vehicle id="-3801.80" type="taxi" depart="50760.00">
        <route edges="-380 -465 -436#0 -436#1"/>
    </vehicle>
    <vehicle id="30659373#01.50" type="carro" depart="50760.00">
        <route edges="30659373#0 30659375 -436#1"/>
    </vehicle>
    <vehicle id="33463249#01.80" type="taxi" depart="50760.00">
        <route edges="33463249#0 33463249#1 -447 -461#0 -461#1"/>
    </vehicle>
    <vehicle id="-3801.81" type="taxi" depart="50764.50">
        <route edges="-380 -465 -436#0 -436#1"/>
    </vehicle>
    <vehicle id="33463249#01.81" type="taxi" depart="50764.50">
        <route edges="33463249#0 33463249#1 -447 -461#0 -461#1"/>
    </vehicle>
    <vehicle id="30659373#01.51" type="carro" depart="50767.20">
        <route edges="30659373#0 30659375 -436#1"/>
    </vehicle>
    <vehicle id="-3801.82" type="taxi" depart="50769.00">
        <route edges="-380 -465 -436#0 -436#1"/>
    </vehicle>
    <vehicle id="33463249#01.82" type="taxi" depart="50769.00">