<?xml version="1.0" encoding="UTF-8"?>

<!-- generated on 06/19/15 09:59:57 by SUMO polyconvert Version dev-SVN-r18493
<?xml version="1.0" encoding="UTF-8"?>

<configuration xmlns:xsi="http://www.w3.org/2001/XMLSchema-instance" xsi:noNamespaceSchemaLocation="http://sumo.dlr.de/xsd/polyconvertConfiguration.xsd">

    <input>
        <net-file value="inter_palmas_notls_shaped_conns_joined_crossings.net.xml"/>
        <osm-files value="inter_palmas_notls.osm"/>
        <type-file value="C:\sumo\data\typemap\osmPolyconvert.typ.xml"/>
    </input>

    <output>
        <output-file value="inter_palmas_notls.poly.xml"/>
    </output>

    <processing>
        <ignore-errors value="true"/>
    </processing>

</configuration>
-->

<additional xmlns:xsi="http://www.w3.org/2001/XMLSchema-instance" xsi:noNamespaceSchemaLocation="http://sumo.dlr.de/xsd/additional_file.xsd">
    <location netOffset="-436926.13,-689249.98" convBoundary="-0.00,-795.12,812.58,405.59" origBoundary="-75.570172,6.228117,-75.562822,6.238979" projParameter="+proj=utm +zone=18 +ellps=WGS84 +datum=WGS84 +units=m +no_defs"/>

    <poly id="153413634" type="building" color="255,230,230" fill="1" layer="-1.00" shape="16.29,92.48 85.46,61.31 103.90,136.10 135.93,121.91 146.54,106.87 158.38,85.63 170.23,62.04 197.12,-173.47 140.98,-173.71 129.77,-56.65 23.61,-60.54 16.29,92.48"/>
    <poly id="153413634#1" type="shop" color="237,199,255" fill="1" layer="-1.00" shape="16.29,92.48 85.46,61.31 103.90,136.10 135.93,121.91 146.54,106.87 158.38,85.63 170.23,62.04 197.12,-173.47 140.98,-173.71 129.77,-56.65 23.61,-60.54 16.29,92.48"/>
    <poly id="32853090" type="forest" color="140,196,107" fill="1" layer="-3.00" shape="432.30,-795.12 457.97,-776.29 469.45,-689.52 501.77,-660.31 521.74,-631.10 554.00,-613.74 565.01,-607.83 588.25,-595.33 610.74,-587.82 678.48,-565.23 729.78,-538.88 720.34,-488.88 720.35,-475.67 763.12,-449.30 792.57,-421.98 812.58,-365.42 802.16,-346.53 706.30,-300.21 701.54,-313.42 674.01,-303.96 689.25,-265.29 709.23,-223.81 731.08,-205.92 731.10,-195.54 709.25,-204.00 696.01,-159.66 701.72,-147.41 718.80,-146.48 724.52,-124.79 736.89,-106.88 706.23,-133.87 692.99,-136.03 646.59,-182.43 651.34,-190.74 652.27,-205.83 646.54,-235.07 629.46,-229.39 623.74,-253.90 608.54,-260.50 607.57,-279.36 588.58,-281.23 566.77,-253.84 546.87,-210.44 545.00,-181.20 545.98,-158.56 546.00,-138.75 534.62,-127.42 525.14,-110.43 523.26,-93.44 526.14,-70.82 535.65,-51.96 537.57,-33.10 527.15,-10.45 509.13,12.21 504.42,39.57 514.89,65.96 533.90,86.69 559.54,90.45 580.43,93.24 645.09,175.25 650.81,196.93 616.66,228.10 619.55,271.47 573.06,292.28 515.15,309.32 482.87,304.64 454.49,405.59 444.04,399.94 432.63,389.58 429.75,363.18 427.80,315.07 427.76,282.06 423.00,269.80 456.21,248.07 465.71,241.46 462.84,229.20 486.56,215.03 510.28,197.08 504.57,182.94 477.01,156.56 459.93,164.12 419.09,158.51 438.14,210.37 409.67,229.26 393.51,210.42 370.70,192.51 333.66,188.78 317.51,183.14 294.72,175.62 254.83,173.78 237.72,149.27 204.50,163.45 187.42,172.91 188.38,183.28 287.13,186.94 302.33,189.75 313.73,193.52 323.23,202.94 325.14,209.54 206.46,215.33 196.97,218.17 160.78,207.07 139.97,196.54 134.27,188.06 158.91,156.90 186.43,138.95 206.35,116.29 219.63,95.52 247.07,7.77 274.51,-79.04 283.01,-113.00 305.76,-154.52 330.42,-179.08 376.89,-226.29 409.14,-267.82 454.63,-348.99 470.74,-373.53 479.27,-386.75 496.34,-405.63 512.46,-426.40 519.10,-437.72 522.87,-452.83 521.91,-474.51 517.13,-493.38 502.87,-519.77 473.39,-554.64 451.53,-580.08 438.20,-608.37 430.59,-623.45 421.04,-670.60 413.40,-721.53 410.51,-748.88 413.35,-763.03 417.13,-778.12 432.30,-795.12"/>
    <poi id="1661049495" type="shop" color="237,199,255" layer="-1.00" x="122.78" y="38.21"/>
    <poi id="1661049549" type="shop" color="237,199,255" layer="-1.00" x="114.54" y="99.53"/>
    <poi id="1687253443" type="amenity" color="237,199,199" layer="-1.00" x="34.25" y="168.89"/>
    <poi id="1687253447" type="shop" color="237,199,255" layer="-1.00" x="24.74" y="146.51"/>
    <poi id="2428479773" type="shop" color="237,199,255" layer="-1.00" x="103.82" y="86.62"/>
    <poi id="2529943443" type="shop" color="237,199,255" layer="-1.00" x="104.08" y="51.21"/>
    <poi id="339905710" type="shop" color="237,199,255" layer="-1.00" x="37.83" y="67.21"/>
    <poi id="567076682" type="amenity" color="237,199,199" layer="-1.00" x="85.46" y="61.31"/>
</additional>
