<routes xmlns:xsi="http://www.w3.org/2001/XMLSchema-instance" xsi:noNamespaceSchemaLocation="http://sumo.dlr.de/xsd/routes_file.xsd">
<route id="1" edges="a b c d"/>
<route id="2" edges="c e f g"/>
</routes>
